57

Li	  51.0916000000	  50.0092000000	  52.4451000000
O	  52.6421000000	  50.7875000000	  53.1885000000
O	  54.5971000000	  51.2401000000	  54.2836000000
C	  53.0755000000	  52.0579000000	  52.8047000000
C	  53.8559000000	  52.4144000000	  54.0209000000
C	  53.6478000000	  50.3187000000	  54.0657000000
H	  53.8470000000	  52.0720000000	  52.0056000000
H	  52.3409000000	  52.7800000000	  52.4547000000
H	  54.4963000000	  53.2148000000	  53.7941000000
H	  53.1822000000	  52.6069000000	  54.9094000000
H	  53.3833000000	  49.8854000000	  54.9999000000
H	  54.2351000000	  49.5749000000	  53.5913000000
N	  50.7052000000	  45.7756000000	  53.4552000000
S	  50.6073000000	  45.4486000000	  51.9705000000
O	  50.2331000000	  44.1135000000	  51.6666000000
O	  50.0818000000	  46.5290000000	  51.1266000000
C	  52.3836000000	  45.3944000000	  51.5889000000
F	  52.6067000000	  44.7045000000	  50.5297000000
F	  53.1331000000	  44.9009000000	  52.5863000000
F	  52.8603000000	  46.7014000000	  51.4155000000
S	  50.3373000000	  47.1848000000	  54.1302000000
O	  49.0451000000	  47.1891000000	  54.8039000000
O	  50.6211000000	  48.3511000000	  53.3529000000
C	  51.5420000000	  47.2603000000	  55.4908000000
F	  51.4985000000	  48.4273000000	  56.1300000000
F	  51.2575000000	  46.3093000000	  56.4243000000
F	  52.8247000000	  47.0954000000	  55.1218000000
N	  53.5443000000	  50.5923000000	  49.0500000000
S	  52.5814000000	  49.4006000000	  49.3771000000
O	  52.7092000000	  48.0651000000	  48.7446000000
O	  52.1746000000	  49.4514000000	  50.7839000000
C	  51.1597000000	  50.1191000000	  48.3995000000
F	  51.5929000000	  50.3204000000	  47.1194000000
F	  50.8278000000	  51.2828000000	  48.8302000000
F	  50.1224000000	  49.2711000000	  48.3821000000
S	  54.9829000000	  50.5619000000	  48.3835000000
O	  55.1058000000	  51.6894000000	  47.4944000000
O	  55.3965000000	  49.2057000000	  47.9172000000
C	  56.0284000000	  50.9664000000	  49.8152000000
F	  55.9794000000	  52.1929000000	  50.2106000000
F	  55.6186000000	  50.2167000000	  50.7891000000
F	  57.3126000000	  50.6893000000	  49.6310000000
N	  47.7021000000	  50.4698000000	  52.8127000000
S	  48.4391000000	  50.9330000000	  54.0807000000
O	  48.0672000000	  50.3049000000	  55.3285000000
O	  49.8725000000	  51.0656000000	  53.9316000000
C	  47.8092000000	  52.6137000000	  54.2360000000
F	  46.5498000000	  52.7214000000	  54.6006000000
F	  47.7458000000	  53.2369000000	  53.0823000000
F	  48.5302000000	  53.2742000000	  55.0763000000
S	  48.1865000000	  49.9160000000	  51.4193000000
O	  47.5884000000	  48.6690000000	  50.9837000000
O	  49.6208000000	  50.0270000000	  51.2326000000
C	  47.4674000000	  51.1363000000	  50.1838000000
F	  47.8943000000	  52.3636000000	  50.4363000000
F	  47.8428000000	  50.8854000000	  48.9505000000
F	  46.1722000000	  51.1445000000	  50.3044000000
