49

Li	  38.8355000000	  46.0517000000	  46.4967000000
F	  39.2365000000	  47.6270000000	  42.4197000000
F	  39.8425000000	  46.1690000000	  43.7470000000
F	  41.0578000000	  48.0102000000	  43.4187000000
O	  39.5303000000	  47.6376000000	  46.0251000000
C	  40.1964000000	  48.5782000000	  46.8799000000
C	  39.1379000000	  49.4950000000	  47.5075000000
C	  39.1112000000	  48.1537000000	  44.7103000000
C	  39.8641000000	  50.6516000000	  48.2873000000
C	  39.8402000000	  47.4507000000	  43.5268000000
H	  40.7727000000	  48.1823000000	  47.7160000000
H	  41.0482000000	  49.0131000000	  46.3824000000
H	  38.4974000000	  49.9950000000	  46.7568000000
H	  38.4084000000	  48.8456000000	  48.0551000000
H	  38.9776000000	  49.2131000000	  44.5848000000
H	  38.0739000000	  47.8421000000	  44.7055000000
H	  40.6430000000	  51.1471000000	  47.7186000000
H	  39.1826000000	  51.4440000000	  48.6513000000
H	  40.2508000000	  50.2088000000	  49.2126000000
N	  36.2012000000	  46.3543000000	  49.4048000000
S	  37.7987000000	  46.1494000000	  49.6027000000
O	  38.4385000000	  46.0640000000	  48.2975000000
O	  38.4202000000	  46.9104000000	  50.6367000000
C	  37.9123000000	  44.3910000000	  50.2174000000
F	  39.1444000000	  44.1031000000	  50.6355000000
F	  37.5546000000	  43.4545000000	  49.3479000000
F	  37.0380000000	  44.2862000000	  51.2664000000
S	  35.3190000000	  46.6130000000	  48.1453000000
O	  34.3578000000	  45.5763000000	  47.9146000000
O	  35.9996000000	  47.1764000000	  47.0382000000
C	  34.2683000000	  48.0312000000	  48.5686000000
F	  33.5789000000	  48.4585000000	  47.5121000000
F	  33.3938000000	  47.7299000000	  49.4820000000
F	  34.9276000000	  49.1027000000	  48.9448000000
N	  42.5191000000	  44.8594000000	  46.3478000000
S	  41.2435000000	  43.9188000000	  46.1185000000
O	  39.9864000000	  44.6476000000	  46.3026000000
O	  41.3767000000	  42.8887000000	  45.1278000000
C	  41.3137000000	  42.9287000000	  47.6718000000
F	  42.5215000000	  42.3649000000	  47.9170000000
F	  40.4216000000	  41.9637000000	  47.6316000000
F	  41.0067000000	  43.6258000000	  48.8136000000
S	  43.7624000000	  45.0835000000	  45.4143000000
O	  43.5810000000	  44.8253000000	  44.0198000000
O	  44.9944000000	  44.6908000000	  45.9899000000
C	  43.9640000000	  46.8853000000	  45.6532000000
F	  42.9370000000	  47.6630000000	  45.4029000000
F	  44.2036000000	  47.1774000000	  46.8977000000
F	  44.9495000000	  47.3757000000	  44.9256000000
