53

Li	  36.0543000000	  11.5577000000	  44.4525000000
O	  32.6691000000	  12.9704000000	  46.0676000000
O	  34.6687000000	  12.5699000000	  45.0593000000
C	  33.5450000000	  14.1147000000	  46.2755000000
C	  34.6632000000	  13.9170000000	  45.1639000000
C	  33.3063000000	  12.1920000000	  45.1708000000
H	  32.8392000000	  14.9437000000	  46.2542000000
H	  34.0494000000	  14.1054000000	  47.2660000000
H	  34.3620000000	  14.3520000000	  44.1985000000
H	  35.6074000000	  14.3821000000	  45.3798000000
H	  33.3084000000	  11.1180000000	  45.5100000000
H	  32.8236000000	  12.3680000000	  44.2596000000
O	  36.8053000000	   9.9466000000	  45.3920000000
O	  37.5322000000	  11.9194000000	  45.7578000000
C	  36.1600000000	  10.2447000000	  46.5884000000
C	  36.7842000000	  11.5851000000	  46.9326000000
C	  37.9468000000	  10.7201000000	  45.3246000000
H	  35.0930000000	  10.2156000000	  46.4870000000
H	  36.5343000000	   9.5625200000	  47.3735000000
H	  35.9924000000	  12.2958000000	  47.2632000000
H	  37.4874000000	  11.4920000000	  47.7849000000
H	  38.6737000000	  10.1433000000	  45.8817000000
H	  38.3716000000	  10.7361000000	  44.2750000000
N	  39.3753000000	  12.9940000000	  42.8198000000
S	  40.4874000000	  12.7086000000	  41.7505000000
O	  39.9788000000	  12.3792000000	  40.4885000000
O	  41.6222000000	  13.6459000000	  41.9157000000
C	  41.1327000000	  11.1715000000	  42.3000000000
F	  40.5418000000	  10.0999000000	  41.8419000000
F	  41.1108000000	  11.0272000000	  43.5933000000
F	  42.3783000000	  11.0819000000	  41.8535000000
S	  37.9397000000	  13.5975000000	  42.4442000000
O	  36.8301000000	  13.0540000000	  43.1326000000
O	  37.7606000000	  13.8154000000	  41.0393000000
C	  38.1044000000	  15.2760000000	  43.1670000000
F	  36.9837000000	  15.9438000000	  43.0009000000
F	  38.4561000000	  15.2657000000	  44.4395000000
F	  38.9781000000	  15.9981000000	  42.5095000000
N	  35.0041000000	  10.9676000000	  40.4447000000
S	  35.9104000000	  10.3773000000	  41.5556000000
O	  37.3391000000	  10.6915000000	  41.3068000000
O	  35.3040000000	  10.5139000000	  42.8785000000
C	  35.7486000000	   8.6302100000	  41.2283000000
F	  36.2636000000	   8.3541100000	  40.0809000000
F	  34.4794000000	   8.2009200000	  41.2302000000
F	  36.4001000000	   7.8909500000	  42.0705000000
S	  34.0752000000	  12.2261000000	  40.3715000000
O	  34.2362000000	  12.9620000000	  39.1126000000
O	  33.9147000000	  12.9241000000	  41.6340000000
C	  32.3586000000	  11.4258000000	  40.1685000000
F	  32.2276000000	  10.4935000000	  39.2892000000
F	  31.8585000000	  10.8736000000	  41.2320000000
F	  31.4705000000	  12.3061000000	  39.8268000000
