38

Li	  32.7822000000	  42.4843000000	  54.1085000000
O	  33.5434000000	  40.8676000000	  53.3692000000
O	  32.6737000000	  38.7884000000	  53.0747000000
C	  34.5744000000	  40.0389000000	  53.7998000000
C	  33.9613000000	  38.5912000000	  53.5786000000
C	  32.6960000000	  40.0672000000	  52.5800000000
H	  35.3527000000	  40.2360000000	  53.1316000000
H	  34.9226000000	  40.3327000000	  54.8064000000
H	  34.5426000000	  38.0807000000	  52.8945000000
H	  33.8720000000	  37.9685000000	  54.4955000000
H	  31.7003000000	  40.4664000000	  52.3460000000
H	  33.1161000000	  40.0751000000	  51.6039000000
O	  31.6655000000	  41.7844000000	  55.6328000000
O	  30.7384000000	  40.9150000000	  57.4255000000
C	  30.8809000000	  40.7075000000	  55.2415000000
C	  29.8519000000	  40.5557000000	  56.4303000000
C	  31.3396000000	  42.0480000000	  56.9650000000
H	  30.4854000000	  40.9898000000	  54.2949000000
H	  31.5921000000	  39.8903000000	  55.1777000000
H	  29.0417000000	  41.2527000000	  56.3241000000
H	  29.3394000000	  39.5706000000	  56.5725000000
H	  32.1678000000	  42.2410000000	  57.5785000000
H	  30.6593000000	  42.9132000000	  57.0765000000
N	  36.5928000000	  43.7831000000	  54.8565000000
S	  38.0087000000	  43.7561000000	  54.1510000000
O	  37.9334000000	  44.0676000000	  52.7819000000
O	  39.0593000000	  44.2962000000	  54.9570000000
C	  38.3030000000	  41.9534000000	  54.3685000000
F	  37.4253000000	  41.2535000000	  53.6938000000
F	  38.1879000000	  41.5660000000	  55.6413000000
F	  39.4999000000	  41.6053000000	  53.9522000000
S	  35.2556000000	  44.3616000000	  54.2616000000
O	  34.1707000000	  43.5249000000	  54.7248000000
O	  35.2851000000	  44.8685000000	  52.9123000000
C	  35.1653000000	  45.8554000000	  55.2572000000
F	  35.1828000000	  45.5451000000	  56.5550000000
F	  36.2198000000	  46.6555000000	  55.1297000000
F	  34.0854000000	  46.6479000000	  54.9663000000
