39

Li	  18.4875000000	  49.6683000000	  55.9635000000
O	  18.8824000000	  54.1438000000	  56.2238000000
O	  18.9371000000	  51.8680000000	  55.7425000000
C	  19.3311000000	  54.0712000000	  54.8753000000
C	  19.1627000000	  52.5501000000	  54.5259000000
C	  18.4443000000	  52.8644000000	  56.6221000000
H	  18.6986000000	  54.6055000000	  54.1455000000
H	  20.3551000000	  54.4687000000	  54.6799000000
H	  18.1875000000	  52.4259000000	  54.0416000000
H	  19.9747000000	  51.9881000000	  54.0162000000
H	  18.7444000000	  52.5358000000	  57.6542000000
H	  17.3509000000	  52.6685000000	  56.6235000000
O	  19.5143000000	  47.8922000000	  58.9905000000
O	  18.8163000000	  49.6278000000	  57.9154000000
C	  20.6911000000	  48.5930000000	  58.7237000000
C	  20.1678000000	  49.9619000000	  58.2268000000
C	  18.4765000000	  48.7355000000	  58.8527000000
H	  21.2911000000	  48.7167000000	  59.6009975088
H	  21.1084000000	  47.9843000000	  57.9249000000
H	  20.1422000000	  50.6022000000	  59.1253000000
H	  20.8019000000	  50.4632000000	  57.5442000000
H	  17.6061000000	  48.2010000000	  58.4443000000
H	  18.3028000000	  49.2309000000	  59.8032875088
S	  19.7103000000	  48.1226000000	  55.0468000000
S	  21.8162000000	  48.4105000000	  55.0851000000
S	  22.4322000000	  50.4708000000	  55.0184000000
S	  23.7600000000	  52.5513000000	  50.1535000000
S	  22.4252000000	  52.2022000000	  48.5405000000
S	  22.7494000000	  53.3445000000	  46.8069000000
S	  23.0043000000	  52.6894000000	  52.1898000000
S	  23.6311000000	  50.9061000000	  53.3146000000
S	  11.8342000000	  42.2896000000	  60.6906275088
S	  13.5057000000	  43.6412000000	  61.0958275088
S	  12.9854000000	  45.6328000000	  60.7789775088
S	  13.8135000000	  49.1916000000	  57.3628000000
S	  15.2299000000	  50.5172000000	  56.3794000000
S	  16.6102000000	  49.3256000000	  55.1523000000
S	  14.3796000000	  48.6890000000	  59.4118715088
S	  14.6103000000	  46.5452000000	  59.7259175088
