47

Li	  42.2759000000	  25.2654000000	  49.5388000000
N	  39.4927000000	  28.0967000000	  50.6258000000
S	  38.5940000000	  28.8786000000	  51.6537000000
O	  37.2685000000	  28.3843000000	  51.8151000000
O	  39.3343000000	  29.2704000000	  52.8621000000
C	  38.1946000000	  30.5225000000	  50.9271000000
F	  37.8280000000	  31.3162000000	  51.9258000000
F	  37.3172000000	  30.5182000000	  49.9212000000
F	  39.2380000000	  31.0968000000	  50.3705000000
S	  39.2944000000	  26.6560000000	  50.0960000000
O	  38.5554000000	  25.8148000000	  51.0001000000
O	  40.5673000000	  26.1976000000	  49.6114000000
C	  38.1990000000	  27.0594000000	  48.6796000000
F	  37.2004000000	  27.7775000000	  49.1263000000
F	  38.8388000000	  27.7371000000	  47.7969000000
F	  37.7060000000	  26.0210000000	  48.0166000000
N	  45.0242000000	  28.4012000000	  49.6284000000
S	  43.4998000000	  28.0967000000	  49.5935000000
O	  43.0033000000	  27.0148000000	  48.7785000000
O	  42.8388000000	  28.4352000000	  50.8162000000
C	  42.9057000000	  29.5171000000	  48.6565000000
F	  43.2215000000	  29.3929000000	  47.4101000000
F	  43.5558000000	  30.5834000000	  49.0402000000
F	  41.6025000000	  29.7629000000	  48.7609000000
S	  46.0506000000	  28.3731000000	  50.8506000000
O	  45.6352000000	  27.5878000000	  52.0287000000
O	  46.7752000000	  29.5929000000	  51.0594000000
C	  47.2401000000	  27.3595000000	  49.8911000000
F	  47.7628000000	  27.9936000000	  48.8649000000
F	  48.2353000000	  26.8914000000	  50.6050000000
F	  46.7887000000	  26.1802000000	  49.3906000000
S	  38.3881000000	  15.2582000000	  53.3846000000
S	  38.3966000000	  16.1631000000	  51.4390000000
S	  38.7350000000	  18.1845000000	  51.5234000000
S	  40.7632000000	  21.0431000000	  47.4968000000
S	  40.5823000000	  23.2109000000	  47.7838000000
S	  42.4273000000	  24.1351000000	  47.6952000000
S	  40.6821000000	  19.9885000000	  49.3117000000
S	  38.7608000000	  19.2370000000	  49.7208000000
S	  43.4889000000	  24.9270000000	  51.3167000000
S	  41.6832000000	  23.8265000000	  51.7966000000
S	  42.1230000000	  22.0326000000	  52.8587000000
S	  41.4450000000	  23.3613000000	  57.3827000000
S	  42.7208000000	  23.6869000000	  58.9360000000
S	  43.8034000000	  25.5997000000	  58.6233000000
S	  42.1311000000	  21.7253000000	  56.2037000000
S	  43.3126000000	  22.2381000000	  54.5439000000
