61

Li	  20.6887000000	  57.8730000000	  44.6990000000
N	  23.9962000000	  58.6656000000	  43.2030000000
S	  23.6345000000	  57.1808000000	  43.0838000000
O	  24.7160000000	  56.3035000000	  43.3746000000
O	  22.3547000000	  56.7940000000	  43.5943000000
C	  23.4146000000	  57.0712000000	  41.2955000000
F	  24.4282000000	  57.6246000000	  40.6963000000
F	  22.2702000000	  57.7218000000	  41.0077000000
F	  23.3479000000	  55.8190000000	  40.8712000000
S	  23.3945000000	  59.6176216015	  44.2657000000
O	  24.3536000000	  59.9702316015	  45.2779000000
O	  22.0285000000	  59.4045816015	  44.7040000000
C	  23.2714000000	  61.1477616015	  43.3531000000
F	  22.8489000000	  61.0017616015	  42.0710000000
F	  22.6234000000	  62.1052116015	  43.9653000000
F	  24.4802000000	  61.5308816015	  43.2447000000
N	  21.4010000000	  54.2479000000	  47.1366000000
S	  20.9246000000	  55.7388000000	  47.1314000000
O	  20.3574000000	  56.0608000000	  45.8704000000
O	  20.2213000000	  56.2545000000	  48.2889000000
C	  22.5373000000	  56.6269000000	  47.2578000000
F	  22.4192000000	  57.9354000000	  47.4230000000
F	  23.3326000000	  56.4439000000	  46.2405000000
F	  23.3289000000	  56.3130000000	  48.2701000000
S	  20.9685000000	  53.1083000000	  48.0677000000
O	  20.6510000000	  51.9422000000	  47.3261000000
O	  20.0921000000	  53.4305000000	  49.1672000000
C	  22.5842000000	  52.8173000000	  48.9680000000
F	  23.6345000000	  52.7550000000	  48.1124000000
F	  22.8389000000	  53.8786000000	  49.7985000000
F	  22.5642000000	  51.6681000000	  49.6622000000
N	  17.7657000000	  57.0612000000	  42.2349000000
S	  19.2647000000	  57.4910000000	  41.9917000000
O	  19.8780000000	  58.2841000000	  43.0256000000
O	  20.0064000000	  56.4247000000	  41.3792000000
C	  18.8997000000	  58.7999000000	  40.7765000000
F	  20.0414000000	  59.3975616015	  40.4055000000
F	  18.1065000000	  59.7168116015	  41.3197000000
F	  18.3085000000	  58.3857000000	  39.6672000000
S	  16.9987000000	  56.9091000000	  43.6195000000
O	  16.0184000000	  57.9716000000	  43.8897000000
O	  17.8784000000	  56.6005000000	  44.6864000000
C	  16.1154000000	  55.3252000000	  43.3459000000
F	  15.4694000000	  55.2320000000	  42.1956000000
F	  16.9346000000	  54.2775000000	  43.5290000000
F	  15.2145000000	  55.1142000000	  44.2750000000
N	  18.1631000000	  60.3439316015	  47.7365000000
S	  18.6915000000	  59.5010316015	  49.0421000000
O	  18.3633000000	  58.0934000000	  49.0633000000
O	  20.0122000000	  59.8760316015	  49.5261000000
C	  17.6582000000	  60.1553216015	  50.4155000000
F	  18.2561000000	  61.2025316015	  50.9684000000
F	  17.5849000000	  59.2173756015	  51.3287000000
F	  16.4634000000	  60.4647216015	  49.9910000000
S	  18.4723000000	  60.0857316015	  46.2868000000
O	  17.2316000000	  60.0176216015	  45.5686000000
O	  19.5124000000	  59.1230000000	  46.0638000000
C	  19.0982000000	  61.6833716015	  45.6214000000
F	  20.2297000000	  62.0642916015	  46.2026000000
F	  19.3030000000	  61.6580616015	  44.3314000000
F	  18.2794000000	  62.6976416015	  45.8925000000
