39

Li	  51.4990000000	  39.0763000000	  39.7072000000
N	  55.4842000000	  39.6528000000	  38.7869000000
S	  54.6753000000	  38.3566000000	  39.3286000000
O	  55.3415000000	  37.6278000000	  40.3996000000
O	  53.2405000000	  38.5032000000	  39.4742000000
C	  54.8581000000	  37.3782000000	  37.8619000000
F	  54.3913000000	  37.9850000000	  36.7839000000
F	  54.0587000000	  36.2582000000	  37.9547000000
F	  56.1075000000	  36.9847000000	  37.5373000000
S	  56.4910000000	  40.6020000000	  39.5109000000
O	  56.5231000000	  40.3193000000	  40.9149000000
O	  56.2551000000	  41.9904000000	  39.1803000000
C	  58.1590000000	  40.0614000000	  38.9275000000
F	  59.0911000000	  40.7766000000	  39.3875000000
F	  58.4150000000	  38.8174000000	  39.2296000000
F	  58.1959000000	  40.2976000000	  37.6074000000
N	  49.1010000000	  40.5496000000	  36.5979000000
S	  50.3041000000	  40.9880000000	  37.3948000000
O	  50.1783000000	  42.3224000000	  37.9599000000
O	  50.9795000000	  39.9414000000	  38.1326000000
C	  51.4296000000	  41.3153000000	  35.9715000000
F	  52.6779000000	  41.6951000000	  36.3290000000
F	  50.9255000000	  42.2496000000	  35.2531000000
F	  51.5819000000	  40.3639000000	  35.1263000000
S	  47.6304000000	  40.9717000000	  36.8121000000
O	  47.0208000000	  41.6614000000	  35.7025000000
O	  47.3138000000	  41.3740000000	  38.1510000000
C	  46.9302000000	  39.2415000000	  36.7019000000
F	  47.5955000000	  38.4465000000	  37.4710000000
F	  45.7385000000	  39.1987000000	  37.1923000000
F	  47.0234000000	  38.6757000000	  35.4657000000
S	  50.4553000000	  37.7063000000	  40.9247000000
S	  51.2750000000	  39.4086000000	  41.8668000000
S	  51.1538000000	  41.2681000000	  40.9441000000
S	  53.4001000000	  45.5034000000	  41.8435000000
S	  52.2697000000	  46.0754000000	  43.4585000000
S	  53.0119000000	  47.9064000000	  44.1540000000
S	  53.7765000000	  43.4511000000	  42.1907000000
S	  53.1098000000	  42.1319000000	  40.7062000000
