53

Li	  40.0906000000	  12.8074000000	  48.4161000000
O	  41.2917000000	  12.0082000000	  49.9167000000
O	  43.4626000000	  11.6221000000	  50.7514000000
C	  41.1989000000	  11.7672000000	  51.3056000000
C	  42.5954000000	  12.0615000000	  51.7466000000
C	  42.6323000000	  11.8106000000	  49.5802000000
H	  40.4895000000	  12.5204000000	  51.6821000000
H	  40.8853000000	  10.6984000000	  51.5229000000
H	  42.8076000000	  13.1367000000	  51.7042000000
H	  42.8175000000	  11.7168000000	  52.7767000000
H	  42.6134000000	  10.9412000000	  48.8777000000
H	  42.9141000000	  12.6447000000	  48.9501000000
O	  37.3876000000	   9.7451200000	  48.7923000000
O	  38.9339000000	  11.2586000000	  48.2315000000
C	  37.7512000000	   9.5300200000	  47.5029000000
C	  39.1687000000	  10.0742000000	  47.4783000000
C	  37.7440000000	  11.0525000000	  48.9952000000
H	  37.6317000000	   8.4655100000	  47.3555000000
H	  37.0810000000	  10.0215000000	  46.8365000000
H	  39.8184000000	   9.3914200000	  48.0306000000
H	  39.4542000000	  10.2581000000	  46.4836000000
H	  36.9467000000	  11.6753000000	  48.6368000000
H	  37.8867000000	  11.2343000000	  50.0413000000
N	  39.5440000000	  16.2148000000	  49.0751000000
S	  41.0798000000	  15.8924000000	  48.7383000000
O	  41.3468000000	  14.4692000000	  48.4865000000
O	  41.7037000000	  17.0045000000	  48.0034000000
C	  41.7663000000	  16.0918000000	  50.3681000000
F	  41.6018000000	  17.3107000000	  50.8338000000
F	  43.1121000000	  15.9203000000	  50.3796000000
F	  41.2086000000	  15.2848000000	  51.2915000000
S	  38.3984000000	  15.2113000000	  49.3444000000
O	  38.8361000000	  13.8373000000	  49.5940000000
O	  37.2561000000	  15.3556000000	  48.4677000000
C	  37.7353000000	  15.8043000000	  50.9503000000
F	  36.7977000000	  15.0210000000	  51.5350000000
F	  38.6611000000	  15.9393000000	  51.9145000000
F	  37.1827000000	  17.0098000000	  50.8311000000
N	  40.1855000000	  12.9953000000	  44.5067000000
S	  41.3465000000	  12.3774000000	  45.3441000000
O	  41.1329000000	  12.1496000000	  46.7576000000
O	  42.1349000000	  11.4040000000	  44.5915000000
C	  42.5987000000	  13.7130000000	  45.2243000000
F	  43.6071000000	  13.4941000000	  46.0433000000
F	  42.1786000000	  14.9656000000	  45.5488000000
F	  43.1206000000	  13.7494000000	  44.0445000000
S	  39.0195000000	  13.7493000000	  45.2137000000
O	  38.7331000000	  15.0790000000	  44.6602000000
O	  39.0021000000	  13.6559000000	  46.6648000000
C	  37.5655000000	  12.7404000000	  44.6280000000
F	  36.3867000000	  13.2586000000	  44.9451000000
F	  37.5388000000	  12.5081000000	  43.2947000000
F	  37.6126000000	  11.5842000000	  45.2586000000
