60

Li	  16.6799000000	  38.5039000000	  12.1978000000
O	  16.9570000000	  38.7559000000	  10.4332000000
O	  16.0526000000	  39.4794000000	   8.5111900000
C	  17.9931000000	  39.5044000000	   9.8410200000
C	  17.1741000000	  40.2344000000	   8.7503400000
C	  16.2299000000	  38.3200000000	   9.3178600000
H	  18.4980000000	  40.1385000000	  10.5920000000
H	  18.7265000000	  38.8051000000	   9.4880000000
H	  16.9135000000	  41.2183000000	   9.1817800000
H	  17.7606000000	  40.2951000000	   7.8658400000
H	  16.7571000000	  37.5629000000	   8.7513700000
H	  15.2686000000	  37.9187000000	   9.5247100000
O	  18.2169000000	  38.0220000000	  13.0809000000
O	  19.5833000000	  37.9484000000	  14.8510000000
C	  19.5297000000	  38.1274000000	  12.5471000000
C	  20.4921000000	  38.3072000000	  13.7459000000
C	  18.5209000000	  37.3406000000	  14.3030000000
H	  19.6349000000	  37.3371000000	  11.8545000000
H	  19.5654000000	  39.0378000000	  11.9688000000
H	  21.2383000000	  37.4553000000	  13.6349000000
H	  21.0188000000	  39.1914000000	  13.8537000000
H	  17.6778000000	  37.4043000000	  14.9282000000
H	  18.7629000000	  36.2927000000	  14.0997000000
O	  16.1529000000	  36.2775000000	  11.7287000000
O	  15.1624000000	  35.1532000000	  10.2013000000
C	  17.1256000000	  35.3698000000	  11.2207000000
C	  16.3652000000	  34.4019000000	  10.3003000000
C	  14.8971000000	  35.7747000000	  11.3817000000
H	  17.9807000000	  35.7678000000	  10.6547000000
H	  17.5763000000	  34.8987000000	  12.0434000000
H	  16.7702000000	  34.2555000000	   9.3104600000
H	  16.1727000000	  33.4356000000	  10.6950000000
H	  14.7170000000	  35.0532000000	  12.1502000000
H	  14.1021000000	  36.5539000000	  11.3682000000
O	  17.8748000000	  42.3529000000	  13.6561000000
O	  16.9298000000	  40.4216000000	  12.8408000000
C	  16.4959000000	  42.6629000000	  13.4673000000
C	  16.0805000000	  41.4986000000	  12.5816000000
C	  17.7947000000	  40.9781000000	  13.7886000000
H	  15.9648000000	  42.5994000000	  14.3830000000
H	  16.3665000000	  43.6560000000	  13.0273000000
H	  15.0373000000	  41.1927000000	  12.4110000000
H	  16.2799000000	  41.7653000000	  11.5334000000
H	  18.7834000000	  40.4835000000	  13.7627000000
H	  17.4327000000	  40.8200000000	  14.7854000000
N	  12.8068000000	  37.1603000000	  13.8056000000
S	  13.4462000000	  38.6263000000	  13.7026000000
O	  14.7899000000	  38.6131000000	  13.1543000000
O	  12.6561000000	  39.6937000000	  13.1436000000
C	  13.5754000000	  39.0450000000	  15.4623000000
F	  13.8826000000	  40.3000000000	  15.6887000000
F	  14.4686000000	  38.3211000000	  16.1341000000
F	  12.4711000000	  38.7305000000	  16.0905000000
S	  11.3852000000	  36.7984000000	  13.2328000000
O	  11.4906000000	  35.6864000000	  12.2778000000
O	  10.6084000000	  37.9749000000	  12.8828000000
C	  10.4655000000	  36.1983000000	  14.6975000000
F	   9.2885100000	  35.7091000000	  14.3892000000
F	  11.1355000000	  35.1848000000	  15.3968000000
F	  10.2709000000	  37.1027000000	  15.6183000000
