28

Li	  28.9982000000	  25.2424000000	  20.6922000000
O	  26.4257000000	  22.3879000000	  21.7556000000
O	  28.1343000000	  23.8894000000	  21.6475000000
C	  26.5782000000	  22.8323000000	  23.0917000000
C	  27.4632000000	  24.0971000000	  22.8757000000
C	  27.6621000000	  22.6821000000	  21.1564000000
H	  25.5906000000	  23.2072000000	  23.4730000000
H	  26.9790000000	  22.0721000000	  23.7308000000
H	  26.9826000000	  25.0904000000	  22.9683000000
H	  28.1641000000	  24.1114000000	  23.7218000000
H	  28.3469000000	  21.9307000000	  21.4750000000
H	  27.5165000000	  22.7179000000	  20.0179000000
S	  26.0144000000	  19.6782000000	  15.7409000000
S	  27.9197000000	  19.4666000000	  16.5888000000
S	  28.1995000000	  20.3092000000	  18.5319000000
S	  31.2040000000	  23.8169000000	  20.3371000000
S	  31.3931000000	  25.9094000000	  20.3491000000
S	  29.9977000000	  26.8277000000	  21.6361000000
S	  30.6723000000	  22.8386000000	  18.5324000000
S	  30.2308000000	  20.8106000000	  18.9521000000
S	  27.7656000000	  25.6807000000	  19.0776000000
S	  25.8420000000	  25.3462000000	  18.7287000000
S	  24.8438000000	  26.7860000000	  17.5370000000
S	  23.7927000000	  26.5421000000	  12.5838000000
S	  24.3309000000	  28.5139000000	  12.0759000000
S	  22.7423000000	  29.9057000000	  12.5224000000
S	  24.8328000000	  25.7471000000	  14.1782000000
S	  23.7293000000	  25.7629000000	  16.0100000000
