46

Li	  24.1579000000	  50.6786000000	  56.0730000000
O	  25.6514000000	  48.5658000000	  59.3114045088
O	  24.8173000000	  50.0180000000	  57.8866000000
C	  26.5011000000	  49.6382000000	  59.2826815088
C	  25.5831000000	  50.6958000000	  58.8344000000
C	  24.9248000000	  48.7232000000	  58.1622000000
H	  27.0679000000	  49.8553000000	  60.1864175088
H	  27.2655000000	  49.5848000000	  58.5562000000
H	  25.0394000000	  51.2119000000	  59.6595675088
H	  26.1114000000	  51.5143000000	  58.3303000000
H	  25.3125000000	  48.1276000000	  57.3361000000
H	  23.8759000000	  48.3430000000	  58.3554000000
O	  20.7061000000	  48.4771000000	  57.2945000000
O	  22.5114000000	  49.5713000000	  56.4059000000
C	  21.4612000000	  47.5594000000	  56.5461000000
C	  22.3384000000	  48.3991000000	  55.6134000000
C	  21.2483000000	  49.7556000000	  56.9513000000
H	  22.1931000000	  47.0216000000	  57.2021000000
H	  20.7920000000	  47.0262000000	  55.8664000000
H	  23.1272000000	  47.8268000000	  55.1413000000
H	  21.8033000000	  48.6254000000	  54.7470000000
H	  20.5405000000	  50.1685000000	  56.2723000000
H	  21.3567000000	  50.3696000000	  57.8233000000
N	  23.7825000000	  53.7781000000	  54.1799000000
S	  24.2472000000	  53.9521000000	  55.6667000000
O	  23.5265000000	  54.9996000000	  56.3419000000
O	  24.4252000000	  52.6468000000	  56.2383000000
C	  25.9475000000	  54.6528000000	  55.5390000000
F	  25.9418000000	  55.6599000000	  54.6095000000
F	  26.8216000000	  53.7784000000	  55.0493000000
F	  26.4197000000	  55.1163000000	  56.7273000000
S	  23.2129000000	  52.4397000000	  53.5068000000
O	  23.1593000000	  51.2479000000	  54.3049000000
O	  23.6955000000	  52.3134000000	  52.1644000000
C	  21.4379000000	  52.9701000000	  53.3217000000
F	  20.8127000000	  53.1212000000	  54.4808000000
F	  21.3067000000	  53.9772000000	  52.5738000000
F	  20.7183000000	  52.0400000000	  52.7612000000
S	  25.7481000000	  49.6780000000	  55.0336000000
S	  26.8452000000	  50.9613000000	  53.6863000000
S	  28.9651000000	  50.7444000000	  53.9818000000
S	  33.2544000000	  49.4641000000	  51.4478000000
S	  33.6926000000	  48.9031000000	  49.4308000000
S	  34.5621000000	  46.9855000000	  49.2553000000
S	  31.3820000000	  48.7419000000	  52.1424000000
S	  30.0325000000	  50.3573000000	  52.1954000000
