23

Li	  23.0357000000	  27.3268000000	  16.6441000000
O	  22.0123000000	  30.6477000000	  14.1906000000
O	  22.5600000000	  28.8647000000	  15.5653000000
C	  21.2450000000	  30.6973000000	  15.3112000000
C	  21.2945000000	  29.3727000000	  15.8957000000
C	  22.8935000000	  29.5848000000	  14.3497000000
H	  21.8153000000	  31.4917000000	  15.8361000000
H	  20.2353000000	  31.1978000000	  15.2263000000
H	  21.0180000000	  29.3643000000	  16.9727000000
H	  20.5764000000	  28.7352000000	  15.3814000000
H	  22.8390000000	  28.9529000000	  13.4744000000
H	  23.9342000000	  30.0670000000	  14.3547000000
O	  25.5467000000	  24.9206000000	  15.0065000000
O	  24.5467000000	  26.6768000000	  16.0734000000
C	  26.1827000000	  26.0767000000	  14.4385000000
C	  25.4508000000	  27.2434000000	  15.1042000000
C	  24.9667000000	  25.3410000000	  16.2075000000
H	  27.2357000000	  26.1218000000	  14.8043000000
H	  26.2333000000	  26.2020000000	  13.3270000000
H	  26.1203000000	  27.8852000000	  15.6663000000
H	  25.0601000000	  27.9581000000	  14.2912000000
H	  24.1953000000	  24.5922000000	  16.5375000000
H	  25.6756000000	  25.2581000000	  17.0080000000
