49

Li	   3.1489500000	  21.1011000000	  47.3608000000
O	   1.3090700000	  21.3825000000	  48.0381000000
O	  -0.9036001922	  21.6357000000	  48.6191000000
C	   0.9956290000	  20.5716000000	  49.2254000000
C	  -0.3535001922	  21.1771000000	  49.8370000000
C	   0.2201998078	  22.2767000000	  48.0376000000
H	   0.8628540000	  19.5611000000	  48.8626000000
H	   1.8158400000	  20.5238000000	  49.9831000000
H	  -0.9631001922	  20.4754000000	  50.3959000000
H	  -0.1161001922	  22.0216000000	  50.4538000000
H	   0.6161998078	  23.1627000000	  48.5429000000
H	   0.0619998078	  22.5088000000	  46.9484000000
O	   3.6529900000	  21.8110000000	  45.7325000000
O	   2.9037200000	  22.8877000000	  43.9366000000
C	   4.3060200000	  21.2014000000	  44.5875000000
C	   4.0873900000	  22.2018000000	  43.5003000000
C	   3.1437300000	  23.0309000000	  45.3060000000
H	   5.3585300000	  21.0724000000	  44.8893000000
H	   3.8594500000	  20.2418000000	  44.3315000000
H	   4.9040600000	  22.8832000000	  43.4493000000
H	   3.9671500000	  21.7293000000	  42.5214000000
H	   2.2767700000	  23.3756000000	  45.9451000000
H	   3.9475300000	  23.7907000000	  45.3788000000
F	   5.2204900000	  18.2407000000	  45.9798000000
F	   3.8718000000	  16.5571000000	  46.0429000000
F	   5.3664800000	  16.7384000000	  47.4983000000
O	   2.8620000000	  19.2186000000	  46.8817000000
C	   1.8451500000	  18.5669000000	  46.0589000000
C	   0.8760700000	  19.6821000000	  45.5277000000
C	   3.7366300000	  18.3073000000	  47.6563000000
C	  -0.2143001922	  19.0052000000	  44.6984000000
C	   4.5348000000	  17.4182000000	  46.7440000000
H	   2.3687700000	  18.0253000000	  45.2823000000
H	   1.3394900000	  17.8680000000	  46.8178000000
H	   0.4378998078	  20.4142000000	  46.1451000000
H	   1.5293100000	  20.2769000000	  44.8654000000
H	   3.1083500000	  17.6788000000	  48.3073000000
H	   4.4106100000	  18.8730000000	  48.3444000000
H	  -0.8662001922	  19.7854000000	  44.1949000000
H	   0.0574998078	  18.2690000000	  43.9238000000
H	  -0.7849001922	  18.4307000000	  45.4359000000
S	   1.8495600000	  26.3567000000	  58.0673000000
S	   2.0030300000	  26.6242000000	  55.9572000000
S	   1.1001400000	  25.0091000000	  55.0081000000
S	   2.9516900000	  22.9602000000	  50.9418000000
S	   3.7987000000	  23.2785000000	  49.1285000000
S	   4.9564900000	  21.5275000000	  48.5914000000
S	   3.5123700000	  24.1640000000	  52.5458000000
S	   2.6129800000	  23.6451000000	  54.3009000000
