39

Li	  13.2775000000	  51.9385000000	  12.5053000000
O	  12.8834000000	  55.6240000000	  10.3637000000
O	  13.1390000000	  53.7670000000	  11.5437000000
C	  12.8646000000	  56.0639000000	  11.6836000000
C	  12.8935000000	  54.8490000000	  12.4679000000
C	  12.7178000000	  54.2424000000	  10.3345000000
H	  13.7222000000	  56.7410000000	  11.9064000000
H	  11.9784000000	  56.6331000000	  11.9031000000
H	  13.6409000000	  54.8404000000	  13.2285000000
H	  11.9493000000	  54.6583000000	  13.0222000000
H	  11.6983000000	  53.8734000000	  10.2399000000
H	  13.5087000000	  53.7572000000	   9.6786800000
O	  16.9141000000	  51.4211000000	  14.5001000000
O	  14.9455000000	  51.8835000000	  13.6055000000
C	  17.1867000000	  52.2181000000	  13.4024000000
C	  15.9320000000	  52.9988000000	  13.4292000000
C	  15.6645000000	  50.9543000000	  14.3558000000
H	  18.0503000000	  52.8710000000	  13.3851000000
H	  17.3238000000	  51.6367000000	  12.5277000000
H	  15.8890000000	  53.7355000000	  14.2287000000
H	  15.6942000000	  53.4925000000	  12.5365000000
H	  15.7112000000	  50.0043000000	  13.7615000000
H	  15.2343000000	  50.9269000000	  15.3774000000
S	  15.4568000000	  48.3824000000	   7.9189300000
S	  14.0257000000	  49.8446000000	   7.4463500000
S	  12.1629000000	  49.6090000000	   8.3139900000
S	   9.8311300000	  50.9333000000	  11.9158000000
S	  10.0660000000	  52.4772000000	  13.2920000000
S	  11.9368000000	  52.1931000000	  14.3550000000
S	   9.6252800000	  51.5828000000	   9.8326400000
S	  11.3735000000	  51.5591000000	   8.6292000000
S	  13.9034000000	  50.5156000000	  11.1220000000
S	  13.1081000000	  48.8112000000	  12.1753000000
S	  14.2280000000	  47.0209000000	  11.7741000000
S	  14.1917000000	  42.2590000000	  10.1904000000
S	  13.0896000000	  40.7300000000	   9.2696800000
S	  13.3911000000	  40.6426000000	   7.2145500000
S	  13.1778000000	  43.5836000000	  11.3942000000
S	  13.1583000000	  45.5716000000	  10.6778000000
