47

Li	   1.9694600000	  26.6246000000	  14.4452000000
N	  -0.4177001922	  25.9244000000	  17.6326000000
S	  -0.7716001922	  25.3241000000	  19.0450000000
O	  -0.8981001922	  23.8630000000	  19.0228000000
O	   0.0137998078	  25.7895000000	  20.1945000000
C	  -2.4301001922	  26.0286000000	  19.2534000000
F	  -3.2531001922	  25.4738000000	  20.1011000000
F	  -3.0088001922	  26.0476000000	  18.0360000000
F	  -2.3122001922	  27.2746000000	  19.5449000000
S	  -0.1622001922	  25.1974000000	  16.2669000000
O	  -0.3613001922	  23.7520000000	  16.3378000000
O	   1.1042600000	  25.6030000000	  15.7016000000
C	  -1.4143001922	  25.9925000000	  15.1482000000
F	  -1.3775001922	  27.3065000000	  15.1825000000
F	  -1.2383001922	  25.6657000000	  13.8933000000
F	  -2.6247001922	  25.6113000000	  15.5529000000
N	   0.0620998078	  29.7273000000	  12.6591000000
S	   0.2942998078	  28.3277000000	  11.9768000000
O	   1.1001300000	  28.2346000000	  10.8373000000
O	   0.5246998078	  27.2700000000	  12.8869000000
C	  -1.3621001922	  27.9726000000	  11.3524000000
F	  -1.7303001922	  28.9085000000	  10.4885000000
F	  -2.2791001922	  27.9604000000	  12.2951000000
F	  -1.3426001922	  26.7755000000	  10.7335000000
S	   0.8123998078	  31.0586000000	  12.4675000000
O	   1.7074700000	  31.1247000000	  11.3156000000
O	   1.3859300000	  31.6368000000	  13.6838000000
C	  -0.5517001922	  32.2715000000	  11.9798000000
F	  -0.9194001922	  32.0309000000	  10.7197000000
F	  -1.6126001922	  32.3206000000	  12.8191000000
F	  -0.0447001922	  33.4849000000	  11.9405000000
S	   2.3532500000	  28.7527000000	  14.9331000000
S	   3.8362200000	  28.9686000000	  16.5215000000
S	   5.3442500000	  27.5543000000	  16.3537000000
S	   9.8902000000	  26.6216000000	  16.4990000000
S	  11.6345000000	  26.7702000000	  17.6800000000
S	  13.4148000000	  26.2796000000	  16.6447000000
S	   8.5862200000	  28.2094000000	  16.9977000000
S	   7.1055100000	  28.2812000000	  15.5582000000
S	   3.3080400000	  25.6164000000	  13.1737000000
S	   2.4182200000	  23.7313000000	  12.8579000000
S	   3.5268800000	  22.0802000000	  13.5835000000
S	   3.1008600000	  20.0674000000	   9.2847900000
S	   4.4410100000	  20.3612000000	   7.6573800000
S	   4.5105500000	  18.7092000000	   6.3110400000
S	   4.2760000000	  19.6595000000	  11.0652000000
S	   4.8785000000	  21.5362000000	  12.0915000000
