24

Li	  55.7263000000	  10.7492000000	  41.6126000000
N	  52.5960000000	   7.4946400000	  40.6575000000
S	  53.2182000000	   8.5727100000	  41.5839000000
O	  52.9282000000	   8.3312800000	  42.9654000000
O	  54.5098000000	   9.1176400000	  41.2853000000
C	  52.0574000000	   9.9544100000	  41.1842000000
F	  50.8864000000	   9.6560000000	  41.6295000000
F	  51.8856000000	  10.2030000000	  39.8865000000
F	  52.4400000000	  11.1390000000	  41.6468000000
S	  53.3991000000	   6.1736400000	  40.2586000000
O	  54.6917000000	   6.0494300000	  40.8640000000
O	  53.2200000000	   5.8859300000	  38.9081000000
C	  52.3817000000	   4.9226600000	  41.1459000000
F	  52.7585000000	   4.9868800000	  42.4100000000
F	  51.0800000000	   4.9602100000	  41.0379000000
F	  52.7964000000	   3.6862800000	  40.8363000000
S	  54.5092000000	  21.2538000000	  45.2178000000
S	  52.6060000000	  21.2544000000	  44.1841000000
S	  52.6855000000	  20.3214000000	  42.2459000000
S	  53.7356000000	  15.2843000000	  42.2919000000
S	  55.4326000000	  14.2633000000	  41.6943000000
S	  55.1560000000	  12.4284000000	  40.7009000000
S	  53.4695000000	  17.0725000000	  41.3070000000
S	  51.9886000000	  18.2975000000	  42.2741000000
