43

Li	  18.4405000000	  47.8767000000	  55.0201000000
O	  19.1763000000	  49.5341000000	  55.3901000000
O	  20.0116000000	  51.6801000000	  55.3593000000
C	  18.5625000000	  50.2513000000	  56.4902000000
C	  19.2611000000	  51.6268000000	  56.5843000000
C	  20.2430000000	  50.3474000000	  55.0895000000
H	  17.4822000000	  50.3777000000	  56.3865000000
H	  18.7593000000	  49.7939000000	  57.4447000000
H	  18.5095000000	  52.3862000000	  56.5525000000
H	  19.8713000000	  51.7515000000	  57.5097000000
H	  21.1134000000	  50.0473000000	  55.6890000000
H	  20.4088000000	  50.0643000000	  54.0615000000
N	  16.3540000000	  47.1147000000	  51.6180000000
S	  15.8310000000	  46.2415000000	  52.7924000000
O	  16.7185000000	  45.1823000000	  53.1875000000
O	  15.0658000000	  47.0450000000	  53.7718000000
C	  14.5327000000	  45.2066000000	  51.9184000000
F	  13.9883000000	  44.2523000000	  52.6212000000
F	  14.9613000000	  44.7318000000	  50.7785000000
F	  13.4978000000	  46.0030000000	  51.6027000000
S	  17.6927000000	  47.9608000000	  51.6138000000
O	  18.2144000000	  48.1506000000	  52.9618000000
O	  17.6359000000	  49.1674000000	  50.8340000000
C	  18.8993000000	  46.8586000000	  50.6722000000
F	  18.4665000000	  46.5577000000	  49.4675000000
F	  20.1070000000	  47.4415000000	  50.5307000000
F	  19.1964000000	  45.7248000000	  51.2575000000
S	  20.0585000000	  46.4915000000	  55.4004000000
S	  22.1342000000	  47.0604000000	  55.1582000000
S	  22.8116000000	  47.4300000000	  53.3219000000
S	  20.5914000000	  52.1160000000	  51.6555000000
S	  18.5261000000	  52.1674000000	  51.2868000000
S	  17.9463000000	  52.7017000000	  49.3175000000
S	  21.4501000000	  50.2258000000	  51.3827000000
S	  22.8418000000	  49.4488000000	  52.8383000000
S	  10.8452000000	  42.7485000000	  64.3281975088
S	  12.2593000000	  42.9672000000	  62.8006675088
S	  12.5270000000	  44.8356000000	  61.9736075088
S	  16.0160000000	  47.4068000000	  59.5118375088
S	  15.0868000000	  47.8428000000	  57.8128000000
S	  16.5238000000	  47.7738000000	  56.1898000000
S	  15.6254000000	  45.5031000000	  60.2576175088
S	  14.5139000000	  45.5658000000	  62.1327575088
