72

Li	  47.5136000000	  47.6954000000	  46.4815000000
O	  46.2800000000	  43.9367000000	  46.8786000000
O	  47.0077000000	  46.0827000000	  46.8559000000
C	  47.7482000000	  43.9465000000	  46.7552000000
C	  48.1822000000	  45.3755000000	  47.0979000000
C	  45.9909000000	  45.2725000000	  47.1634000000
H	  48.1698000000	  43.1694000000	  47.3695000000
H	  48.0012000000	  43.7423000000	  45.7317000000
H	  48.3866000000	  45.4499000000	  48.1356000000
H	  49.0057000000	  45.8875000000	  46.6623000000
H	  45.0739000000	  45.5644000000	  46.6909000000
H	  45.8387000000	  45.3442000000	  48.3045000000
N	  49.5234000000	  50.3093000000	  44.0473000000
S	  49.5233000000	  50.1911000000	  45.5382000000
O	  48.3376000000	  49.4679000000	  46.0342000000
O	  50.8049000000	  49.9739000000	  46.1100000000
C	  49.2127000000	  51.9734000000	  45.9682000000
F	  50.1720000000	  52.7965000000	  45.5340000000
F	  49.1014000000	  52.1919000000	  47.2970000000
F	  48.0240000000	  52.3410000000	  45.5236000000
S	  50.6649000000	  50.3223000000	  42.9595000000
O	  50.4627000000	  49.4266000000	  41.8635000000
O	  52.0092000000	  50.4780000000	  43.5192000000
C	  50.4361000000	  51.9159000000	  42.1194000000
F	  49.2092000000	  52.1217000000	  41.7089000000
F	  50.8088000000	  52.9466000000	  42.8936000000
F	  51.2470000000	  52.0316000000	  41.0150000000
N	  45.9011000000	  46.5053000000	  42.5649000000
S	  46.9188000000	  47.5622000000	  43.1526000000
O	  47.1370000000	  47.4190000000	  44.5699000000
O	  48.0953000000	  47.7763000000	  42.3885000000
C	  45.9251000000	  49.1455000000	  42.9761000000
F	  44.7729000000	  49.0272000000	  43.5869000000
F	  45.6110000000	  49.3506000000	  41.6909000000
F	  46.5754000000	  50.2852000000	  43.3394000000
S	  44.7283000000	  45.8374000000	  43.3280000000
O	  43.6454000000	  46.6650000000	  43.8717000000
O	  45.1538000000	  44.7194000000	  44.1077000000
C	  43.9461000000	  45.0572000000	  41.8927000000
F	  44.7937000000	  44.3409000000	  41.1590000000
F	  42.9665000000	  44.1646000000	  42.1998000000
F	  43.3685000000	  45.9301000000	  41.0815000000
N	  43.5482000000	  48.6685000000	  48.7667000000
S	  42.3711000000	  47.8122000000	  49.3822000000
O	  41.4457000000	  48.5851000000	  50.1109000000
O	  41.8748000000	  46.7962000000	  48.4878000000
C	  43.2134000000	  46.8320000000	  50.7743000000
F	  43.2124000000	  47.5986000000	  51.9339000000
F	  44.4374000000	  46.4455000000	  50.5081000000
F	  42.5636000000	  45.7385000000	  51.0482000000
S	  44.1037000000	  48.7527000000	  47.3229000000
O	  43.1918000000	  48.2123000000	  46.3466000000
O	  45.5790000000	  48.5009000000	  47.1933000000
C	  43.9966000000	  50.5063000000	  46.9771000000
F	  44.2023000000	  50.7749000000	  45.7285000000
F	  42.7601000000	  50.9960000000	  47.3110000000
F	  44.8825000000	  51.2267000000	  47.6048000000
N	  49.4181000000	  50.0258000000	  49.2572000000
S	  50.9256000000	  50.2148000000	  49.7188000000
O	  51.1992000000	  49.4657000000	  50.9549000000
O	  51.8738000000	  50.2438000000	  48.6343000000
C	  50.9058000000	  52.0071000000	  50.2083000000
F	  50.6924000000	  52.8825000000	  49.2277000000
F	  51.9697000000	  52.4906000000	  50.8447000000
F	  49.8751000000	  52.2137000000	  51.0564000000
S	  48.4294000000	  48.9296000000	  49.6643000000
O	  48.8429000000	  48.1028000000	  50.7897000000
O	  47.8648000000	  48.2243000000	  48.5384000000
C	  46.9973000000	  49.9613000000	  50.3023000000
F	  47.2422000000	  50.4613000000	  51.5145000000
F	  46.6491000000	  50.9522000000	  49.4421000000
F	  45.9863000000	  49.1684000000	  50.4292000000
