32

Li	  22.5035000000	  54.6259000000	   7.4323600000
N	  25.5780000000	  52.8339000000	   7.9839700000
S	  25.7740000000	  54.0733000000	   7.0794600000
O	  26.6574000000	  53.8842000000	   5.9696600000
O	  24.5844000000	  54.8235000000	   6.7874500000
C	  26.7939000000	  55.2784000000	   8.1944400000
F	  27.8159000000	  54.5869000000	   8.6998500000
F	  26.1411000000	  55.6783000000	   9.2324000000
F	  27.2903000000	  56.3230000000	   7.4943300000
S	  24.2871000000	  52.2522000000	   8.5540700000
O	  24.0657000000	  50.8362000000	   8.2761000000
O	  23.1581000000	  53.1448000000	   8.4462200000
C	  24.5808000000	  52.3515000000	  10.3726000000
F	  25.6681000000	  51.6287000000	  10.7507000000
F	  24.8323000000	  53.6565000000	  10.6413000000
F	  23.6203000000	  51.9591000000	  11.2054000000
S	  21.9083000000	  53.5589000000	   5.6951500000
S	  22.3063000000	  55.4324000000	   4.8156900000
S	  20.6256000000	  56.5233000000	   4.2227500000
S	  17.8239000000	  56.3132000000	   7.9140000000
S	  17.1946000000	  57.3844000000	   9.6750000000
S	  18.6811000000	  57.5585000000	  11.1156000000
S	  18.0140000000	  57.6030000000	   6.2843000000
S	  19.9919000000	  57.9630000000	   5.6326700000
S	  21.8605000000	  56.2230000000	   8.6968400000
S	  21.5938000000	  55.2391000000	  10.5782000000
S	  20.4031000000	  53.5048000000	  10.3211000000
S	  16.2926000000	  51.0743000000	  11.2710000000
S	  16.3617000000	  49.0201000000	  10.8555000000
S	  16.0980000000	  48.3233000000	   8.8420000000
S	  17.9595000000	  51.7658000000	  12.2804000000
S	  18.6070000000	  53.4864000000	  11.4008000000
