53

Li	  27.7437000000	  22.0060000000	  24.4228000000
O	  26.9405000000	  20.1592000000	  24.7468000000
O	  24.7762000000	  19.6980000000	  24.8675000000
C	  26.7894000000	  19.7117000000	  26.0511000000
C	  25.2177000000	  20.0042000000	  26.1631000000
C	  25.9408000000	  19.4943000000	  24.0974000000
H	  26.9261000000	  18.6560000000	  26.1029000000
H	  27.5023000000	  20.2272000000	  26.7676000000
H	  24.5721000000	  19.4469000000	  26.8584000000
H	  25.0197000000	  21.0801000000	  26.2729000000
H	  25.8892000000	  19.8839000000	  23.0858000000
H	  26.0894000000	  18.4153000000	  24.0322000000
F	  30.3656000000	  25.5518000000	  25.5656000000
F	  32.0662000000	  24.1313000000	  25.2992000000
F	  30.2789000000	  23.6415000000	  26.5882000000
O	  29.5632000000	  22.1620000000	  24.3878000000
C	  30.6709000000	  21.2434000000	  24.5957000000
C	  30.1634000000	  19.8276000000	  24.5951000000
C	  30.0229000000	  23.5503000000	  24.1775000000
C	  29.8092000000	  19.3221000000	  23.1857000000
C	  30.6911000000	  24.2240000000	  25.4244000000
H	  31.3579000000	  21.5308000000	  23.7539000000
H	  31.3188000000	  21.4924000000	  25.4779000000
H	  30.9508000000	  19.1960000000	  24.9660000000
H	  29.3182000000	  19.6438000000	  25.2027000000
H	  29.1900000000	  24.1705000000	  23.8352000000
H	  30.8126000000	  23.5332000000	  23.4005000000
H	  29.2787000000	  20.1193000000	  22.5699000000
H	  30.8099000000	  19.0720000000	  22.7655000000
H	  29.2584000000	  18.3988000000	  23.2887000000
N	  27.7731000000	  25.2053000000	  26.9795000000
S	  26.8894000000	  23.9261000000	  27.0881000000
O	  25.5172000000	  24.0624000000	  27.4846000000
O	  27.1208000000	  23.0432000000	  25.9908000000
C	  27.6671000000	  23.2098000000	  28.5544000000
F	  26.8485000000	  22.2869000000	  29.0778000000
F	  27.7172000000	  24.0782000000	  29.5222000000
F	  28.8004000000	  22.6295000000	  28.3214000000
S	  27.1138000000	  26.6510000000	  27.0362000000
O	  26.0062000000	  26.8546000000	  27.9617000000
O	  26.9954000000	  27.1554000000	  25.7062000000
C	  28.4767000000	  27.4954000000	  27.9138000000
F	  28.7802000000	  26.9591000000	  29.0724000000
F	  29.6061000000	  27.4947000000	  27.2165000000
F	  28.2109000000	  28.7781000000	  28.1630000000
S	  20.1399000000	  20.3019000000	  18.3847000000
S	  22.1371000000	  19.6992000000	  17.7672000000
S	  22.9371000000	  18.0613000000	  18.8995000000
S	  26.4731000000	  21.1155000000	  19.8401000000
S	  27.6175000000	  21.9243000000	  21.3477000000
S	  26.4942000000	  22.8823000000	  22.7372000000
S	  26.2186000000	  18.9905000000	  20.0406000000
S	  24.2675000000	  18.5222000000	  20.6287000000
