49

Li	  36.7532000000	  31.1181000000	  54.3052000000
O	  37.0762000000	  34.9108000000	  55.3717000000
O	  36.6192000000	  32.7512000000	  55.3004000000
C	  37.2445000000	  34.3552000000	  56.6597000000
C	  37.4443000000	  32.8846000000	  56.3945000000
C	  36.3945000000	  33.9943000000	  54.6820000000
H	  38.0356000000	  34.7888000000	  57.2185000000
H	  36.3712000000	  34.5692000000	  57.2625000000
H	  38.4654000000	  32.5774000000	  56.0618000000
H	  37.2258000000	  32.2852000000	  57.2501000000
H	  35.3421000000	  34.1629000000	  54.6182000000
H	  36.8629000000	  34.0868000000	  53.6853000000
O	  36.7038000000	  28.8057000000	  54.4410000000
O	  37.8844000000	  30.0912000000	  55.7073000000
C	  38.0158000000	  28.6481000000	  53.9057000000
C	  38.8640000000	  29.5695000000	  54.8597000000
C	  36.8283000000	  29.1972000000	  55.7693000000
H	  38.3216000000	  27.6135000000	  53.8699000000
H	  38.0079000000	  29.1691000000	  52.9447000000
H	  39.5832000000	  29.0008000000	  55.4770000000
H	  39.5078000000	  30.2646000000	  54.3327000000
H	  35.8228000000	  29.5519000000	  56.1558000000
H	  37.1170000000	  28.3330000000	  56.3455000000
O	  38.3210000000	  33.2034000000	  51.6672000000
O	  37.4834000000	  31.4631000000	  52.6378000000
C	  37.5287000000	  32.6306000000	  50.6565000000
C	  37.0774000000	  31.3924000000	  51.2784000000
C	  38.6666000000	  32.2096000000	  52.5366000000
H	  36.6921000000	  33.3815000000	  50.4498000000
H	  38.1384000000	  32.3915000000	  49.7542000000
H	  36.0658000000	  31.1496000000	  51.2469000000
H	  37.5526000000	  30.5278000000	  50.8255000000
H	  39.4927000000	  31.6276000000	  52.1370000000
H	  38.9487000000	  32.6480000000	  53.4387000000
N	  32.7591000000	  30.1880000000	  55.0608000000
S	  33.6244000000	  30.0394000000	  53.7852000000
O	  34.8941000000	  30.7966000000	  53.9007000000
O	  33.5799000000	  28.7548000000	  53.1515000000
C	  32.7107000000	  31.0636000000	  52.5731000000
F	  33.4034000000	  31.4002000000	  51.4865000000
F	  32.3380000000	  32.2172000000	  53.1219000000
F	  31.5257000000	  30.4778000000	  52.2438000000
S	  31.8389000000	  29.1344000000	  55.7483000000
O	  32.0857000000	  28.9448000000	  57.1525000000
O	  31.5738000000	  27.9513000000	  54.9351000000
C	  30.2809000000	  30.0249000000	  55.7620000000
F	  29.3025000000	  29.3638000000	  56.3868000000
F	  30.4520000000	  31.1899000000	  56.3593000000
F	  29.8304000000	  30.3332000000	  54.5460000000
