61

Li	  18.0165000000	  37.3115000000	   2.3287600000
O	  19.2659000000	  36.0468000000	   3.3044500000
O	  18.7475000000	  34.9012000000	   5.2333800000
C	  19.9319000000	  34.8020000000	   3.1443800000
C	  19.4212000000	  33.9730000000	   4.4245100000
C	  19.0245000000	  36.1255000000	   4.6614900000
H	  19.7401000000	  34.4397000000	   2.1080900000
H	  21.0340000000	  34.7898000000	   3.1892100000
H	  18.6866000000	  33.3212000000	   4.0233900000
H	  20.1250000000	  33.3374000000	   5.0172600000
H	  19.9854000000	  36.3372000000	   5.1150900000
H	  18.2643000000	  36.8802000000	   4.9161200000
O	  15.8461000000	  33.9087000000	   2.9126700000
O	  16.8709000000	  35.8973000000	   2.4511600000
C	  15.4094000000	  34.8337000000	   3.8447900000
C	  15.7559000000	  36.2215000000	   3.2098700000
C	  16.5126000000	  34.6662000000	   1.9449500000
H	  14.4249000000	  34.7094000000	   4.1461000000
H	  15.9395000000	  34.6786000000	   4.8051000000
H	  15.0095000000	  36.7520000000	   2.5744300000
H	  16.0608000000	  36.9228000000	   4.0008200000
H	  17.3764000000	  34.0575000000	   1.7020800000
H	  15.9387000000	  34.8127000000	   1.0292200000
N	  21.8244000000	  37.8889000000	   2.8532000000
S	  20.7262000000	  38.9986000000	   2.4864900000
O	  20.7356000000	  39.5429000000	   1.1591900000
O	  19.4352000000	  38.6930000000	   3.1152700000
C	  21.2247000000	  40.4596000000	   3.4986300000
F	  21.2524000000	  40.1344000000	   4.7257900000
F	  20.5025000000	  41.5145000000	   3.3622700000
F	  22.4432000000	  40.8625000000	   3.2277200000
S	  22.8549000000	  37.1894000000	   1.8758500000
O	  23.3738000000	  38.1195000000	   0.8579220000
O	  22.5858000000	  35.8332000000	   1.5990400000
C	  24.2424000000	  37.0688000000	   3.0305000000
F	  25.3180000000	  36.6328000000	   2.3922800000
F	  24.6225000000	  38.2693000000	   3.4342700000
F	  23.9493000000	  36.2913000000	   4.0011800000
N	  18.6046000000	  37.4027000000	  -1.6148375088
S	  18.5127000000	  38.7956000000	  -2.1599375088
O	  17.1274000000	  39.2911000000	  -2.1891375088
O	  19.5992000000	  39.7183000000	  -1.7944375088
C	  18.9252000000	  38.6121000000	  -3.9166375088
F	  20.2397000000	  38.3338000000	  -3.9266375088
F	  18.8125000000	  39.6607000000	  -4.7064375088
F	  18.4274000000	  37.4446000000	  -4.4610375088
S	  19.6827000000	  36.8882000000	  -0.6450375088
O	  19.1256000000	  36.5540000000	   0.6268624912
O	  20.9714000000	  37.5641000000	  -0.7582375088
C	  20.0313000000	  35.1564000000	  -1.3218375088
F	  20.4853000000	  35.2863000000	  -2.5803375088
F	  20.9799000000	  34.5289000000	  -0.6442375088
F	  18.9194000000	  34.4531000000	  -1.3649375088
S	  16.6776000000	  38.4455000000	   0.9296050000
S	  15.7930000000	  39.9132000000	   2.0587600000
S	  15.8882000000	  39.7306000000	   4.0909400000
S	  16.0994000000	  43.4515000000	   6.8734000000
S	  14.4387000000	  43.7295000000	   8.1073900000
S	  14.5237000000	  45.4540000000	   9.2901800000
S	  16.8321000000	  41.4866000000	   6.9641600000
S	  17.4341000000	  40.7660000000	   5.0113500000
