50

Li	   5.2563100000	  23.1523000000	   4.2694500000
O	   8.1646500000	  20.4531000000	   3.4632100000
O	   6.6326300000	  21.8941000000	   4.3074400000
C	   8.8542000000	  21.1413000000	   4.4868400000
C	   7.8956700000	  22.2716000000	   4.8361400000
C	   6.8414200000	  20.6567000000	   3.7662800000
H	   8.7856100000	  20.4782000000	   5.3842800000
H	   9.8485000000	  21.2974000000	   4.1919800000
H	   7.8944000000	  22.4286000000	   5.9113700000
H	   8.2065800000	  23.2505000000	   4.4039200000
H	   6.1132300000	  20.5311000000	   2.9616800000
H	   6.6914000000	  19.9600000000	   4.5813100000
N	   5.5727500000	  22.3460000000	   0.1192624912
S	   7.0777300000	  22.5447000000	   0.4017624912
O	   7.3788100000	  23.8031000000	   1.0176900000
O	   7.7080300000	  21.4179000000	   0.9030500000
C	   7.7603400000	  22.6232000000	  -1.2877375088
F	   7.1488300000	  23.5698000000	  -1.9865375088
F	   7.6272600000	  21.4310000000	  -1.9520375088
F	   9.0617000000	  22.8629000000	  -1.1669375088
S	   4.4280400000	  22.9678000000	   0.9522910000
O	   3.6213800000	  23.8874000000	   0.2384624912
O	   4.7582500000	  23.3593000000	   2.3252300000
C	   3.2742500000	  21.5132000000	   1.3239400000
F	   2.2608100000	  21.8292000000	   2.1068300000
F	   2.8298600000	  20.9969000000	   0.2149624912
F	   3.8837000000	  20.4650000000	   1.8801600000
N	   5.4011000000	  27.3103000000	   3.4128100000
S	   6.5889700000	  26.5482000000	   4.0984300000
O	   6.3992500000	  25.1168000000	   4.3141900000
O	   7.9162300000	  27.1207000000	   3.7929500000
C	   6.2700700000	  27.3863000000	   5.7249300000
F	   4.9768000000	  27.4323000000	   6.0203200000
F	   6.7524800000	  28.6662000000	   5.6690700000
F	   6.9056900000	  26.6696000000	   6.7265300000
S	   4.0623900000	  26.7146000000	   2.8271600000
O	   3.4834200000	  25.7593000000	   3.7417900000
O	   4.1460600000	  26.3592000000	   1.4657400000
C	   2.9813700000	  28.2405000000	   2.9241300000
F	   3.6944000000	  29.3655000000	   2.5799500000
F	   1.9977000000	  28.2099000000	   2.0812300000
F	   2.4416000000	  28.4816000000	   4.0782300000
S	   5.3401400000	  29.2343000000	  13.4627000000
S	   3.4187000000	  29.2090000000	  12.4725000000
S	   3.5983800000	  29.1836000000	  10.4184000000
S	   4.2825300000	  24.1626000000	   8.4395700000
S	   4.6042400000	  24.1390000000	   6.2796000000
S	   3.4431100000	  22.7548000000	   5.1232400000
S	   4.7589900000	  26.1014000000	   9.1615100000
S	   3.0583700000	  27.3355000000	   9.4571400000
