42

Li	   3.1670800000	  49.0064000000	  15.4154000000
O	   2.0072600000	  49.4096000000	  11.4755000000
O	   2.2732500000	  49.3066000000	  13.7463000000
C	   2.1519200000	  48.0188000000	  11.7876000000
C	   1.7678700000	  48.0926000000	  13.2232000000
C	   2.5430900000	  50.0228000000	  12.5674000000
H	   1.4238700000	  47.4862000000	  11.2306000000
H	   3.1871600000	  47.7388000000	  11.4654000000
H	   0.7011998078	  47.9349000000	  13.4200000000
H	   2.3043100000	  47.3557000000	  13.7669000000
H	   3.6081700000	  50.1228000000	  12.4436000000
H	   2.2005300000	  51.0214000000	  12.7624000000
N	   5.2798300000	  46.3770000000	  17.0622000000
S	   4.9942400000	  46.4407000000	  18.6530000000
O	   5.1529600000	  47.7302000000	  19.3235000000
O	   3.9264500000	  45.6376000000	  19.1453000000
C	   6.4080800000	  45.4116000000	  19.1248000000
F	   6.3207400000	  44.9929000000	  20.3775000000
F	   7.5809300000	  46.0476000000	  19.0154000000
F	   6.5336800000	  44.2900000000	  18.4507000000
S	   5.8486400000	  47.4047000000	  16.1248000000
O	   7.0238700000	  47.9905000000	  16.7165000000
O	   4.8507600000	  48.1367000000	  15.4609000000
C	   6.5539500000	  46.2687000000	  14.8242000000
F	   7.4465000000	  45.4596000000	  15.3998000000
F	   5.6257300000	  45.5755000000	  14.1884000000
F	   7.2849200000	  46.9301000000	  13.9500000000
N	   0.5976998078	  45.7115000000	  16.1476000000
S	   0.9313880000	  46.8490000000	  17.1531000000
O	   0.9879800000	  46.4356000000	  18.5459000000
O	   1.8507200000	  47.8578000000	  16.5628000000
C	  -0.6557001922	  47.6464000000	  17.0865000000
F	  -0.9167001922	  48.1346000000	  15.8950000000
F	  -0.7172001922	  48.4920000000	  18.0483000000
F	  -1.5247001922	  46.6584000000	  17.2316000000
S	   0.7158998078	  44.1308000000	  16.3665000000
O	  -0.3260001922	  43.3020000000	  15.8722000000
O	   1.3048100000	  43.8036000000	  17.6414000000
C	   2.1287200000	  43.8269000000	  15.3364000000
F	   3.2824900000	  44.2871000000	  15.8674000000
F	   2.3771300000	  42.5292000000	  15.0562000000
F	   2.0544600000	  44.3453000000	  14.1388000000
