24

Li	  56.7486000000	  12.8699000000	  36.3907000000
N	  58.8582000000	  10.9506000000	  38.1638000000
S	  58.6273000000	  10.5056000000	  36.6352000000
O	  57.5285000000	  11.1230000000	  35.9373000000
O	  59.8164801922	  10.2273000000	  35.9353000000
C	  57.9295000000	   8.8529800000	  36.8490000000
F	  58.6911000000	   8.0445100000	  37.5758000000
F	  57.6038000000	   8.1357000000	  35.7714000000
F	  56.8237000000	   8.8777600000	  37.5587000000
S	  58.2320000000	  12.1756000000	  38.9273000000
O	  57.2259000000	  12.8478000000	  38.1681000000
O	  59.1625000000	  13.0608000000	  39.5822000000
C	  57.4265000000	  11.2257000000	  40.2939000000
F	  56.4772000000	  10.3763000000	  39.9534000000
F	  58.3577000000	  10.5535000000	  40.9433000000
F	  56.9057000000	  12.1607000000	  41.0868000000
S	  55.0135000000	  12.9160000000	  35.2551000000
S	  53.4097000000	  12.8501000000	  36.5557000000
S	  53.9430000000	  12.6822000000	  38.6135000000
S	  56.7696000000	  16.4534000000	  38.2746000000
S	  58.4975000000	  15.7847000000	  37.1637000000
S	  57.9685000000	  14.5537000000	  35.5469000000
S	  56.1006000000	  15.3111000000	  39.8320000000
S	  54.0380000000	  14.5740000000	  39.6659000000
