50

Li	  20.2119000000	  13.2762000000	  13.7378000000
O	  20.9374000000	   9.1578800000	  13.8004000000
O	  20.8792000000	  11.3454000000	  13.7728000000
C	  21.1977000000	   9.5489900000	  15.1374000000
C	  21.0575000000	  11.1196000000	  15.1911000000
C	  21.4392000000	  10.2274000000	  13.1266000000
H	  20.6225000000	   8.8883900000	  15.7925000000
H	  22.3347000000	   9.1867700000	  15.1927000000
H	  20.2777000000	  11.4630000000	  15.9074000000
H	  21.9924000000	  11.4696000000	  15.5272000000
H	  22.5697000000	  10.2565000000	  13.2103000000
H	  21.0392000000	  10.2195000000	  12.0997000000
N	  22.0241000000	  16.3523000000	  14.2830000000
S	  20.6073000000	  16.5458000000	  13.6529000000
O	  19.9507000000	  15.3379000000	  13.1903000000
O	  19.8959000000	  17.6117000000	  14.2390000000
C	  21.0331000000	  17.2373000000	  12.0238000000
F	  19.9458000000	  17.4183000000	  11.2157000000
F	  21.8145000000	  16.3408000000	  11.3941000000
F	  21.7081000000	  18.4024000000	  12.0321000000
S	  22.4397000000	  15.1099000000	  15.1820000000
O	  21.8539000000	  13.8622000000	  14.6919000000
O	  22.5743000000	  15.3131000000	  16.6212000000
C	  24.1654000000	  14.7689000000	  14.5745000000
F	  24.9882000000	  15.6837000000	  15.0914000000
F	  24.7757000000	  13.6478000000	  14.9800000000
F	  24.3039000000	  14.8734000000	  13.2508000000
N	  18.4132000000	  11.9503000000	   9.6834300000
S	  19.2491000000	  13.0958000000	  10.3647000000
O	  18.8320000000	  14.4565000000	   9.9838200000
O	  19.4983000000	  12.8642000000	  11.8110000000
C	  20.9329000000	  12.8818000000	   9.7076000000
F	  20.8976000000	  13.2544000000	   8.4557100000
F	  21.3899000000	  11.6289000000	   9.7902800000
F	  21.7617000000	  13.6492000000	  10.3647000000
S	  18.0711000000	  10.5027000000	  10.2299000000
O	  18.2868000000	  10.4105000000	  11.6710000000
O	  18.5855000000	   9.4662200000	   9.4483700000
C	  16.2686000000	  10.3872000000	   9.9406300000
F	  15.8168000000	   9.1782400000	  10.2583000000
F	  15.4788000000	  11.2340000000	  10.6111000000
F	  15.9421000000	  10.6217000000	   8.6690300000
S	  18.4351000000	  13.3535000000	  14.8705000000
S	  18.2051000000	  14.9455000000	  16.2661000000
S	  18.4763000000	  14.3271000000	  18.2421000000
S	  13.8471000000	  13.6669000000	  19.3995000000
S	  12.4619000000	  14.4656000000	  20.7398000000
S	  11.4645000000	  16.0870000000	  19.8261000000
S	  15.8229000000	  13.6356000000	  20.3435000000
S	  17.0695000000	  15.1315000000	  19.5963000000
