35

Li	  51.3970000000	  32.2357000000	  49.6818000000
O	  50.0927000000	  30.9663000000	  50.1018000000
O	  48.4339000000	  29.4891000000	  49.6525000000
C	  49.1773000000	  31.0936000000	  51.2304000000
C	  47.9290000000	  30.3257000000	  50.7118000000
C	  49.8015000000	  29.7671000000	  49.5367000000
H	  49.5221000000	  30.4689000000	  52.0589000000
H	  48.8777000000	  32.1132000000	  51.4506000000
H	  47.3761000000	  29.7870000000	  51.4835000000
H	  47.1188000000	  31.0200000000	  50.2592000000
H	  50.1929000000	  29.6378000000	  48.4808000000
H	  50.3013000000	  29.0023000000	  50.0818000000
N	  50.8820000000	  35.1715000000	  51.8294000000
S	  51.3093000000	  33.8515000000	  52.4420000000
O	  50.7183000000	  33.6302000000	  53.6961000000
O	  51.5361000000	  32.7645000000	  51.5359000000
C	  53.0759000000	  34.3334000000	  52.9211000000
F	  53.0454000000	  35.4552000000	  53.5850000000
F	  53.7196000000	  34.5918000000	  51.8267000000
F	  53.7402000000	  33.4118000000	  53.6415000000
S	  50.6409000000	  35.5087000000	  50.3344000000
O	  50.6491000000	  34.3728000000	  49.4549000000
O	  51.2404000000	  36.7058000000	  49.8413000000
C	  48.8793000000	  35.9246000000	  50.4559000000
F	  48.4256000000	  36.3174000000	  49.3026000000
F	  48.0658000000	  34.9519000000	  50.8288000000
F	  48.6129000000	  36.8814000000	  51.3311000000
S	  52.3630000000	  31.8664000000	  47.8722000000
S	  53.6587000000	  32.5479000000	  49.4526000000
S	  54.9387000000	  31.0084000000	  49.9857000000
S	  53.4847000000	  26.7286000000	  51.1094000000
S	  52.2534000000	  25.8128000000	  52.6224000000
S	  53.2823000000	  24.0308000000	  53.2317000000
S	  54.8916000000	  28.0314000000	  51.9349000000
S	  54.2532000000	  30.0572000000	  51.7278000000
