46

Li	  15.4318000000	  41.7699000000	  56.6841000000
O	  12.2371000000	  40.3252000000	  54.7810000000
O	  14.0727000000	  40.6316000000	  56.0282000000
C	  12.1609000000	  39.2462000000	  55.7036000000
C	  13.5531000000	  39.3474000000	  56.3964000000
C	  13.5428000000	  40.7766000000	  54.7403000000
H	  11.3918000000	  39.4089000000	  56.4172000000
H	  12.1186000000	  38.2818000000	  55.2553000000
H	  13.4563000000	  39.4204000000	  57.4532000000
H	  14.2891000000	  38.5690000000	  56.0962000000
H	  14.0865000000	  39.9776000000	  54.1624000000
H	  13.6782000000	  41.7330000000	  54.1897000000
O	  15.4163000000	  43.7524000000	  57.1502000000
O	  13.8130000000	  45.2417000000	  57.1686000000
C	  15.6537000000	  44.5981000000	  56.0726000000
C	  14.7745000000	  45.8186000000	  56.2626000000
C	  14.5482000000	  44.4196000000	  57.9836000000
H	  16.7210000000	  44.9485000000	  56.1323000000
H	  15.3554000000	  44.1016000000	  55.1949000000
H	  15.2208000000	  46.6348000000	  56.8451000000
H	  14.3935000000	  46.1402000000	  55.3225000000
H	  13.8498000000	  43.6949000000	  58.4805000000
H	  15.1273000000	  45.0504000000	  58.6965000000
N	  16.9164000000	  39.0111000000	  55.2156000000
S	  17.7673000000	  40.2922000000	  54.9981000000
O	  16.9749000000	  41.4059000000	  55.3945000000
O	  19.1078000000	  40.1850000000	  55.4616000000
C	  17.7372000000	  40.4442000000	  53.1628000000
F	  16.4762000000	  40.7992000000	  52.8340000000
F	  18.0524000000	  39.3230000000	  52.5091000000
F	  18.4768000000	  41.3802000000	  52.6684000000
S	  17.1760000000	  37.8426000000	  56.2745000000
O	  16.4225000000	  37.9729000000	  57.5531000000
O	  18.6136000000	  37.5672000000	  56.4241000000
C	  16.4865000000	  36.3467000000	  55.3949000000
F	  17.0530000000	  36.2919000000	  54.2017000000
F	  16.8331000000	  35.2259000000	  56.0167000000
F	  15.1868000000	  36.3582000000	  55.2511000000
S	  16.0723000000	  40.8432000000	  58.6285000000
S	  15.3671000000	  40.8592000000	  60.6145175088
S	  16.7659000000	  40.1351000000	  62.0019375088
S	  15.1224000000	  42.9284000000	  65.1628875088
S	  15.7028000000	  44.7513000000	  65.9531875088
S	  14.6786000000	  45.1770000000	  67.7217875088
S	  16.7180000000	  41.4939000000	  65.1846075088
S	  17.5636000000	  41.5581000000	  63.3095175088
