43

Li	  55.0184000000	  49.5198000000	  42.7489000000
O	  58.9884000000	  50.5750000000	  43.6415000000
O	  56.8911000000	  50.1514000000	  42.7653000000
C	  59.0664000000	  50.7670000000	  42.2224000000
C	  57.5795000000	  51.0531000000	  41.9177000000
C	  57.6776000000	  50.1706000000	  43.9159000000
H	  59.7742501922	  51.5683000000	  41.9840000000
H	  59.3891801922	  49.8405000000	  41.7633000000
H	  57.1741000000	  52.1064000000	  42.1574000000
H	  57.2107000000	  50.9052000000	  40.9781000000
H	  57.7132000000	  49.1265000000	  44.3165000000
H	  57.3175000000	  50.9181000000	  44.6324000000
N	  53.8849000000	  46.9935000000	  39.2417000000
S	  55.0398000000	  48.0371000000	  39.6209000000
O	  54.9550000000	  48.7169000000	  40.8971000000
O	  56.3410000000	  47.6691000000	  39.1057000000
C	  54.5676000000	  49.3649000000	  38.5634000000
F	  53.4088000000	  49.9114000000	  39.0097000000
F	  54.4168000000	  49.0252000000	  37.2377000000
F	  55.4013000000	  50.3296000000	  38.5893000000
S	  54.1264000000	  45.5427000000	  38.9885000000
O	  53.0304000000	  44.7236000000	  39.4319000000
O	  55.4387000000	  44.9406000000	  39.1997000000
C	  53.9914000000	  45.4973000000	  37.1398000000
F	  54.0399000000	  44.2638000000	  36.7182000000
F	  52.8942000000	  46.0057000000	  36.6274000000
F	  55.0182000000	  46.1289000000	  36.5816000000
S	  51.7363000000	  37.9101000000	  41.2674000000
S	  53.1312000000	  39.0220000000	  42.4961000000
S	  52.8711000000	  41.1242000000	  42.6036000000
S	  54.4389000000	  45.1651000000	  43.9146000000
S	  55.3921000000	  47.0501000000	  43.2452000000
S	  55.0536000000	  48.5302000000	  44.7643000000
S	  55.4657000000	  43.4473000000	  43.3178000000
S	  54.4139000000	  42.3887000000	  41.7544000000
S	  43.7116000000	  48.1802000000	  44.6961000000
S	  44.8349000000	  49.9619000000	  44.4198000000
S	  45.5338000000	  50.2646000000	  42.4970000000
S	  50.6850000000	  49.8659000000	  40.7908000000
S	  52.1973000000	  49.7300000000	  42.3299000000
S	  53.7579000000	  51.2328000000	  42.0280000000
S	  48.9497000000	  50.7465000000	  41.6933000000
S	  47.4757000000	  49.3956000000	  42.4114000000
