31

Li	  53.8974000000	  36.5922000000	  35.2619000000
O	  53.0045000000	  36.8726000000	  38.9480000000
O	  53.9433000000	  36.0436000000	  37.0576000000
C	  52.5751000000	  35.5891000000	  38.8375000000
C	  53.7430000000	  34.9715000000	  38.0392000000
C	  53.9262000000	  37.1756000000	  37.9020000000
H	  52.2846000000	  35.2395000000	  39.7914000000
H	  51.6614000000	  35.6345000000	  38.2260000000
H	  54.5899000000	  34.6145000000	  38.6336000000
H	  53.4821000000	  34.1409000000	  37.4283000000
H	  53.6174000000	  38.0899000000	  37.3339000000
H	  54.9014000000	  37.3730000000	  38.4233000000
O	  55.5990000000	  36.8506000000	  34.6619000000
O	  57.7423000000	  36.2459000000	  34.0595000000
C	  56.4259000000	  37.8783000000	  35.2914000000
C	  57.7688000000	  37.6032000000	  34.4972000000
C	  56.4526000000	  35.7647000000	  34.4333000000
H	  55.9926000000	  38.8022000000	  35.3500000000
H	  56.6276000000	  37.6959000000	  36.3857000000
H	  57.6403000000	  38.2002000000	  33.5907000000
H	  58.5630000000	  37.8755000000	  35.1141000000
H	  56.5843000000	  35.0308000000	  35.2312000000
H	  56.0279000000	  35.1603000000	  33.6392000000
S	  52.8691000000	  35.3360000000	  34.0459000000
S	  52.3271000000	  37.3652000000	  33.8404000000
S	  50.2475000000	  37.6490000000	  33.7695000000
S	  47.9346000000	  41.7789000000	  36.5567000000
S	  49.1497000000	  43.2683000000	  37.3864000000
S	  48.8675000000	  43.4580000000	  39.4903000000
S	  49.0296000000	  40.0757000000	  36.1894000000
S	  49.6675000000	  39.6884000000	  34.1080000000
