38

Li	  15.5849000000	   5.0563400000	  23.3577000000
O	  14.4352000000	   5.5089300000	  27.4235000000
O	  15.4358000000	   5.3372400000	  25.3533000000
C	  15.7544000000	   6.0187100000	  27.4940000000
C	  16.4897000000	   5.4943100000	  26.3415000000
C	  14.2311000000	   5.3452500000	  26.0945000000
H	  15.7929000000	   7.1455700000	  27.4197000000
H	  16.1631000000	   5.6443500000	  28.4720000000
H	  17.3136000000	   6.1479600000	  26.0828000000
H	  17.0281000000	   4.5632700000	  26.5290000000
H	  13.6965000000	   4.4462700000	  25.9017000000
H	  13.6939000000	   6.1727000000	  25.6956000000
F	  15.9260000000	   1.8118800000	  24.2904000000
F	  14.6033000000	   1.0731100000	  22.8043000000
F	  14.4975000000	   3.1638600000	  23.3760000000
O	  16.4313000000	   3.7902700000	  22.1116000000
C	  17.2494000000	   4.1198800000	  20.9728000000
C	  17.4665000000	   5.6307800000	  20.8433000000
C	  16.2786000000	   2.3648900000	  22.0482000000
C	  18.0001000000	   6.1189500000	  22.1205000000
C	  15.3201000000	   2.0940800000	  23.1727000000
H	  18.2191000000	   3.6679000000	  21.0862000000
H	  16.8885000000	   3.6761900000	  20.0472000000
H	  18.2469000000	   5.8836300000	  20.0887000000
H	  16.5265000000	   6.1214300000	  20.6351000000
H	  17.1938000000	   1.8034700000	  21.9719000000
H	  15.7828000000	   2.1115500000	  21.1238000000
H	  17.9875000000	   7.1815200000	  22.1212000000
H	  17.4748000000	   5.6466100000	  22.9423000000
H	  19.0966000000	   5.8898000000	  22.2521000000
S	  16.6106000000	   9.9610600000	  15.2882000000
S	  17.5005000000	   8.2336000000	  16.0304000000
S	  16.5630000000	   7.5025000000	  17.7393000000
S	  13.5378000000	   4.7741700000	  20.3001000000
S	  13.0297000000	   6.1125100000	  21.8019000000
S	  14.7026000000	   6.8647800000	  22.8185000000
S	  13.3898000000	   5.7523700000	  18.4256000000
S	  15.3843000000	   5.7095500000	  17.6195000000
