72

Li	  21.1513000000	  55.4265000000	  46.5117000000
O	  19.4438000000	  52.1391000000	  45.2435000000
O	  19.7878000000	  54.2317000000	  45.9604000000
C	  18.6332000000	  52.9304000000	  44.4141000000
C	  18.9048000000	  54.3603000000	  44.8984000000
C	  19.6831000000	  52.8985000000	  46.3895000000
H	  18.9040000000	  52.7734000000	  43.3606000000
H	  17.5755000000	  52.7960000000	  44.4736000000
H	  19.2596000000	  55.1194000000	  44.2644000000
H	  17.9034000000	  54.7586000000	  45.1956000000
H	  18.8234000000	  52.8520000000	  46.9421000000
H	  20.5454000000	  52.5495000000	  47.0072000000
N	  22.0497000000	  54.2511000000	  43.1367000000
S	  22.4238000000	  52.9468000000	  42.3267000000
O	  23.7596000000	  52.7999000000	  41.9800000000
O	  21.6172000000	  51.8412000000	  42.7827000000
C	  21.6181000000	  53.4076000000	  40.7572000000
F	  20.2413000000	  53.4049000000	  40.9766000000
F	  21.7560000000	  52.4813000000	  39.8109000000
F	  21.9650000000	  54.6682000000	  40.3345000000
S	  23.0566000000	  55.2104000000	  43.8953000000
O	  24.4560000000	  54.8059000000	  43.9436000000
O	  22.5518000000	  55.8021000000	  45.1280000000
C	  23.1239000000	  56.6521000000	  42.7808000000
F	  21.9712000000	  57.1774000000	  42.4390000000
F	  23.7890000000	  57.6820000000	  43.3502000000
F	  23.6920000000	  56.2659000000	  41.6880000000
N	  23.3037000000	  51.9802000000	  47.7761000000
S	  23.4069000000	  53.4021000000	  48.3898000000
O	  22.5777000000	  54.3651000000	  47.6735000000
O	  23.2629000000	  53.5244000000	  49.8145000000
C	  25.1430000000	  53.8949000000	  48.0773000000
F	  26.0230000000	  52.8721000000	  48.2118000000
F	  25.5290000000	  54.8217000000	  48.8225000000
F	  25.1906000000	  54.3791000000	  46.8326000000
S	  23.4712000000	  51.4858000000	  46.2652000000
O	  24.4103000000	  52.2974000000	  45.4715000000
O	  22.3041000000	  50.9282000000	  45.6221000000
C	  24.4632000000	  50.0078000000	  46.6222000000
F	  24.1404000000	  49.4681000000	  47.8127000000
F	  24.3634000000	  49.1287000000	  45.6592000000
F	  25.7544000000	  50.2828000000	  46.6712000000
N	  18.5803000000	  58.3347000000	  46.9790000000
S	  19.0039000000	  57.8445000000	  45.5212000000
O	  20.1509000000	  56.9002000000	  45.5445000000
O	  17.9047000000	  57.5004000000	  44.6496000000
C	  19.7595000000	  59.3834016015	  44.7993000000
F	  18.9535000000	  60.3808716015	  45.0697000000
F	  19.9756000000	  59.3470416015	  43.4913000000
F	  20.8663000000	  59.7362516015	  45.4313000000
S	  18.8777000000	  57.4725000000	  48.2754000000
O	  19.1962000000	  58.2372000000	  49.4490000000
O	  19.6011000000	  56.2108000000	  48.0319000000
C	  17.1755000000	  56.8169000000	  48.6870000000
F	  16.2188000000	  57.5696000000	  48.1633000000
F	  17.0153000000	  55.6018000000	  48.1303000000
F	  16.9519000000	  56.7709000000	  50.0078000000
N	  23.8276000000	  57.7356000000	  49.6658000000
S	  23.2978000000	  57.0859000000	  50.9830000000
O	  21.8540000000	  57.2085000000	  51.2036000000
O	  23.9167000000	  55.8124000000	  51.3365000000
C	  23.9675000000	  58.3332000000	  52.0867000000
F	  25.3016000000	  58.5961000000	  52.1131000000
F	  23.5957000000	  58.1370000000	  53.2937000000
F	  23.4177000000	  59.4526016015	  51.7384000000
S	  23.0282000000	  58.1404000000	  48.3332000000
O	  22.5635000000	  59.4545816015	  48.4384000000
O	  22.1961000000	  57.1398000000	  47.7234000000
C	  24.3209000000	  58.3933000000	  47.1210000000
F	  23.7861000000	  58.7822000000	  45.9623000000
F	  25.1325000000	  59.3958916015	  47.4306000000
F	  24.9158000000	  57.2643000000	  46.9040000000
