61

Li	  54.1174000000	  43.0540000000	  46.6303000000
N	  54.4310000000	  39.1444000000	  46.7521000000
S	  53.9573000000	  40.0223000000	  47.9455000000
O	  54.3964000000	  39.5422000000	  49.2498000000
O	  54.2016000000	  41.4232000000	  47.6699000000
C	  52.1762000000	  39.9187000000	  47.9253000000
F	  51.7151000000	  38.7975000000	  48.4234000000
F	  51.6614000000	  40.0959000000	  46.7287000000
F	  51.6594000000	  40.9502000000	  48.6023000000
S	  55.6460000000	  39.4561000000	  45.7635000000
O	  56.4293000000	  38.3057000000	  45.4293000000
O	  56.4096000000	  40.6079000000	  46.2322000000
C	  54.8682000000	  39.9987000000	  44.3113000000
F	  54.0511000000	  39.1115000000	  43.7896000000
F	  54.1860000000	  41.0434000000	  44.5515000000
F	  55.7192000000	  40.3662000000	  43.3418000000
N	  55.4955000000	  44.7571000000	  43.2194000000
S	  56.0210000000	  44.6489000000	  44.6442000000
O	  55.2911000000	  43.6840000000	  45.3965000000
O	  57.4720000000	  44.6635000000	  44.7766000000
C	  55.5397000000	  46.2921000000	  45.3596000000
F	  56.1242000000	  47.2354000000	  44.6072000000
F	  55.9008000000	  46.5637000000	  46.5699000000
F	  54.3045000000	  46.6173000000	  45.3383000000
S	  56.2909000000	  44.9007000000	  41.8836000000
O	  56.3580000000	  43.6054000000	  41.2087000000
O	  57.4775000000	  45.7379000000	  41.8596000000
C	  55.1305000000	  45.9242000000	  40.9328000000
F	  54.0049000000	  45.2596000000	  40.8861000000
F	  54.9137000000	  47.0955000000	  41.4387000000
F	  55.5065000000	  46.0704000000	  39.6180000000
N	  49.8135000000	  43.4507000000	  45.9513000000
S	  51.1027000000	  43.6480000000	  45.0767000000
O	  52.3959000000	  43.5658000000	  45.7551000000
O	  51.0383000000	  42.9682000000	  43.8247000000
C	  50.9541000000	  45.4349000000	  44.6628000000
F	  50.9804000000	  46.2961000000	  45.7361000000
F	  49.8209000000	  45.5150000000	  43.9805000000
F	  51.8705000000	  45.7560000000	  43.8393000000
S	  48.3557000000	  43.0009000000	  45.4823000000
O	  47.9453000000	  41.6607000000	  45.9431000000
O	  48.0816000000	  43.4289000000	  44.1207000000
C	  47.4023000000	  44.1928000000	  46.5420000000
F	  47.8774000000	  45.4064000000	  46.3055000000
F	  46.0771000000	  44.1913000000	  46.4421000000
F	  47.6264000000	  43.9312000000	  47.8434000000
N	  52.4940000000	  45.4302000000	  50.1085000000
S	  50.9251000000	  45.8135000000	  50.2077000000
O	  50.7669000000	  47.1940000000	  50.5844000000
O	  50.0892000000	  45.3608000000	  49.1153000000
C	  50.3385000000	  44.7444000000	  51.5640000000
F	  49.2102000000	  45.2159000000	  51.9650000000
F	  51.2007000000	  44.7457000000	  52.6242000000
F	  50.1585000000	  43.5170000000	  51.2687000000
S	  53.4859000000	  45.7906000000	  48.9302000000
O	  53.1505000000	  47.0259000000	  48.1891000000
O	  53.9188000000	  44.6119000000	  48.1996000000
C	  55.0752000000	  46.2935000000	  49.7685000000
F	  55.1202000000	  47.5802000000	  49.8805000000
F	  55.2550000000	  45.6887000000	  50.9633000000
F	  56.1053000000	  46.0399000000	  49.0909000000
