35

Li	   3.7787100000	  49.7463000000	  47.4596000000
O	   5.2920200000	  52.8929000000	  47.0805000000
O	   3.8673200000	  51.5295000000	  48.0433000000
C	   5.6174900000	  52.9149000000	  48.4619000000
C	   4.6624300000	  51.9481000000	  49.1387000000
C	   3.9329000000	  52.5181000000	  47.0828000000
H	   6.6774500000	  52.7797000000	  48.7294000000
H	   5.4311000000	  53.9011000000	  48.9034000000
H	   5.2850300000	  51.0965000000	  49.4979000000
H	   4.0660400000	  52.4624000000	  49.8324000000
H	   3.2444200000	  53.2723000000	  47.4943000000
H	   3.6563700000	  52.4166000000	  46.0173000000
O	   3.7827500000	  48.4144000000	  48.6378000000
N	   2.2347700000	  46.8515000000	  49.2911000000
C	   3.5017000000	  47.3047000000	  49.1540000000
C	   1.8848900000	  45.5489000000	  49.8771000000
C	   1.0548000000	  47.6046000000	  48.8344000000
C	   4.5844100000	  46.5651000000	  49.9495000000
H	   2.4375100000	  44.6612000000	  49.4823000000
H	   1.9932500000	  45.5398000000	  50.9977000000
H	   0.7887810000	  45.3018000000	  49.6328000000
H	   0.6906426356	  47.0310000000	  48.0654000000
H	   0.3349426356	  47.6586000000	  49.6518000000
H	   1.2214000000	  48.6622000000	  48.4256000000
H	   4.5604800000	  46.8482000000	  50.9915000000
H	   4.7114400000	  45.4941000000	  49.8284000000
H	   5.4854700000	  46.9637000000	  49.6398000000
S	   4.6872900000	  49.6091000000	  45.4830000000
S	   2.7975400000	  48.6266000000	  45.5771000000
S	   1.1730800000	  49.8888000000	  45.2575000000
S	  -1.3001573644	  46.2086000000	  45.0987000000
S	  -2.8165573644	  44.8524000000	  44.5515000000
S	  -3.9488573644	  44.2509000000	  46.3451000000
S	  -1.8788573644	  48.1282000000	  45.1071000000
S	  -0.6356573644	  49.3181000000	  46.3452000000
