42

Li	  49.3873000000	  18.7870000000	  37.7381000000
O	  49.3044000000	  20.6809000000	  37.4643000000
O	  49.8365000000	  22.5672000000	  36.2849000000
C	  48.0251000000	  21.3337000000	  37.1985000000
C	  48.5353000000	  22.1237000000	  35.9073000000
C	  50.3261000000	  21.6174000000	  37.2245000000
H	  47.1695000000	  20.7254000000	  36.9662000000
H	  47.8113000000	  22.1622000000	  37.8923000000
H	  48.5651000000	  21.4420000000	  34.9833000000
H	  47.7678000000	  22.8950000000	  35.7615000000
H	  50.5444000000	  22.1340000000	  38.1521000000
H	  51.1884000000	  21.1442000000	  36.8152000000
O	  48.0279000000	  17.5181000000	  41.2480000000
O	  49.1941000000	  18.7505000000	  39.7177000000
C	  49.4078000000	  17.4010000000	  41.6087000000
C	  50.1237000000	  17.8386000000	  40.2576000000
C	  48.1181000000	  18.7124000000	  40.5093000000
H	  49.6845000000	  18.1560000000	  42.4395000000
H	  49.7359000000	  16.3787000000	  41.8017000000
H	  51.0519000000	  18.3917000000	  40.4398000000
H	  50.2944000000	  16.9829000000	  39.6325000000
H	  47.3288000000	  18.8000000000	  39.8272000000
H	  48.1385000000	  19.6092000000	  41.1349000000
O	  45.4311000000	  16.7222000000	  37.4658000000
O	  47.5044000000	  17.5756000000	  37.6573000000
C	  45.8158000000	  16.8771000000	  36.0698000000
C	  47.1716000000	  17.5557000000	  36.2804000000
C	  46.6342000000	  16.5998000000	  38.1452000000
H	  45.8663000000	  15.9244000000	  35.6074000000
H	  45.0111000000	  17.4437000000	  35.4816000000
H	  47.9715000000	  17.0034000000	  35.7524000000
H	  47.1266000000	  18.6075000000	  35.8467000000
H	  46.2933000000	  16.8863000000	  39.1157000000
H	  46.9399000000	  15.5574000000	  38.2522000000
S	  55.4600000000	  25.3370000000	  41.7309000000
S	  54.0603000000	  25.2544000000	  40.1470000000
S	  54.8021000000	  24.1701000000	  38.3593000000
S	  53.9109000000	  19.4990000000	  37.7210000000
S	  52.5319000000	  17.9318000000	  37.8237000000
S	  50.9186000000	  18.0256000000	  36.4427000000
S	  53.6325000000	  21.0871000000	  38.9884000000
S	  53.4952000000	  22.7417000000	  37.6987000000
