46

Li	   0.7757000000	  47.7906000000	  47.9816000000
O	   0.9166550000	  46.8898000000	  46.4370000000
O	   0.9881830000	  46.7201000000	  44.2358000000
C	   0.1051426356	  45.7406000000	  46.1409000000
C	  -0.0296573644	  45.8101000000	  44.6040000000
C	   1.7988100000	  47.0279000000	  45.3569000000
H	   0.6476426356	  44.7376000000	  46.3544000000
H	  -0.8191573644	  45.6078000000	  46.6977000000
H	  -0.0060573644	  44.8470000000	  44.0368000000
H	  -1.0090573644	  46.2036000000	  44.3068000000
H	   2.2224900000	  48.0568000000	  45.1748000000
H	   2.6326200000	  46.3334000000	  45.3461000000
O	   0.9113060000	  46.4121000000	  51.5361000000
O	   0.7468470000	  46.2363000000	  49.3345000000
C	   2.1751900000	  46.2438000000	  51.0446000000
C	   1.9887300000	  45.6556000000	  49.6706000000
C	  -0.0304573644	  46.2389000000	  50.5088000000
H	   2.8727500000	  47.0619000000	  51.0892000000
H	   2.7458000000	  45.4956000000	  51.6725000000
H	   2.7134800000	  45.9649000000	  48.9277000000
H	   1.8419200000	  44.5936000000	  49.7724000000
H	  -0.6406573644	  45.3570000000	  50.6232000000
H	  -0.7594573644	  46.9702000000	  50.5872000000
O	  -0.8603573644	  48.4387000000	  48.4743000000
N	  -1.8860573644	  50.1983000000	  49.2428000000
C	  -1.9185573644	  48.9783000000	  48.6415000000
C	  -3.2245573644	  50.8165000000	  49.6362000000
C	  -0.5986573644	  50.8546000000	  49.5409000000
C	  -3.1618573644	  48.2149000000	  48.1203000000
H	  -2.9840573644	  51.8363000000	  50.0150000000
H	  -3.9364573644	  50.8415000000	  48.8125000000
H	  -3.6490573644	  50.1612000000	  50.4223000000
H	  -0.0455573644	  51.0527000000	  48.6083000000
H	  -0.6913573644	  51.8648000000	  50.0210000000
H	   0.1034426356	  50.2213000000	  50.1087000000
H	  -4.1044573644	  48.4758000000	  48.6254000000
H	  -3.3466573644	  48.1547000000	  47.0632000000
H	  -2.9901573644	  47.1599000000	  48.3386000000
S	   2.4411100000	  49.0221000000	  47.9957000000
S	   2.7552200000	  51.0126000000	  47.5272000000
S	   3.1781900000	  51.3091000000	  45.5406000000
S	   5.5180600000	  48.7264000000	  42.2706000000
S	   7.5292600000	  48.5613000000	  41.7103000000
S	   8.2327300000	  50.5275000000	  41.2255000000
S	   5.3092800000	  48.6705000000	  44.2859000000
S	   5.1341700000	  50.6581000000	  44.8996000000
