54

Li	  34.2221000000	  50.8823000000	  54.4388000000
O	  34.8942000000	  52.5562000000	  54.0515000000
N	  35.3784000000	  54.1585000000	  52.3829000000
C	  34.7551000000	  53.6314000000	  53.5203000000
C	  35.2984000000	  55.5468000000	  51.9781000000
C	  36.3168000000	  53.3803000000	  51.5879000000
C	  33.6835000000	  54.5653000000	  54.1586000000
H	  34.3047000000	  55.8558000000	  51.6653000000
H	  35.6649000000	  56.1109000000	  52.9001000000
H	  36.0921000000	  55.6811000000	  51.1408000000
H	  37.2891000000	  53.9168000000	  51.4116000000
H	  36.5921000000	  52.4102000000	  52.0169000000
H	  35.8238000000	  53.1694000000	  50.6235000000
H	  33.1695000000	  53.9890000000	  54.9510000000
H	  34.1006000000	  55.3840000000	  54.7329000000
H	  32.9173000000	  55.0077000000	  53.5359000000
N	  30.7510000000	  52.9205000000	  53.0025000000
S	  31.1394000000	  51.4108000000	  53.2459000000
O	  32.0929000000	  51.1178000000	  54.2649000000
O	  30.0774000000	  50.4977000000	  53.2458000000
C	  32.0330000000	  51.1344000000	  51.6512000000
F	  33.2020000000	  51.7023000000	  51.4588000000
F	  31.2487000000	  51.6737000000	  50.7110000000
F	  32.2078000000	  49.8596000000	  51.3568000000
S	  29.3637000000	  53.5701000000	  53.2712000000
O	  28.3631000000	  52.8419000000	  53.9787000000
O	  28.9169000000	  54.3637000000	  52.1641000000
C	  29.7481000000	  54.8872000000	  54.4553000000
F	  30.3364000000	  54.4307000000	  55.5591000000
F	  30.4973000000	  55.9072000000	  54.0014000000
F	  28.6153000000	  55.3519000000	  54.9032000000
N	  34.8609000000	  51.4961000000	  58.2663000000
S	  33.8756000000	  50.6732000000	  57.4101000000
O	  32.5681000000	  51.2271000000	  57.1786000000
O	  34.4546000000	  50.1121000000	  56.2218000000
C	  33.5922000000	  49.1767000000	  58.4506000000
F	  32.7474000000	  48.3271000000	  57.8911000000
F	  33.1059000000	  49.5927000000	  59.6797124815
F	  34.6625000000	  48.5504000000	  58.6375000000
S	  36.3731000000	  51.9339000000	  57.8530000000
O	  36.5669000000	  52.7825000000	  56.6920000000
O	  37.3363000000	  50.8809000000	  58.0342000000
C	  36.7936000000	  53.0138000000	  59.2351000000
F	  38.0342000000	  53.3618000000	  59.4120824815
F	  36.1371000000	  54.1609000000	  58.9609000000
F	  36.4030000000	  52.5783000000	  60.4509924815
S	  35.3897000000	  49.4699000000	  53.2657000000
S	  33.9079000000	  47.9716000000	  53.2484000000
S	  34.3580000000	  46.6303000000	  54.7115000000
S	  33.3982000000	  42.8841000000	  51.3868000000
S	  31.6874000000	  41.5653000000	  51.0747000000
S	  32.1184000000	  39.4133000000	  51.0729000000
S	  33.6455000000	  43.4355000000	  53.5251000000
S	  35.1299000000	  44.8111000000	  53.9499000000
