57

Li	  47.0002000000	  32.4450000000	  26.4382000000
O	  48.4845000000	  31.2544000000	  26.5169000000
O	  50.0752000000	  30.0440000000	  25.7526000000
C	  48.5639000000	  30.0942000000	  27.3340000000
C	  50.0108000000	  29.9642000000	  27.1534000000
C	  49.1010000000	  30.8319000000	  25.3596000000
H	  48.2400000000	  30.3588000000	  28.3341000000
H	  47.8891000000	  29.2825000000	  27.1265000000
H	  50.6201000000	  30.7172000000	  27.5414000000
H	  50.3692000000	  29.0023000000	  27.6032000000
H	  48.3837000000	  30.4654000000	  24.6372000000
H	  49.4463000000	  31.7480000000	  24.9371000000
O	  46.7086000000	  33.1698000000	  28.1977000000
N	  45.7109000000	  32.6765000000	  30.1876000000
C	  46.3637000000	  33.4914000000	  29.3606000000
C	  45.2750000000	  33.1025000000	  31.5318000000
C	  45.3773000000	  31.3574000000	  29.6904000000
C	  46.6648000000	  34.9468000000	  29.7917000000
H	  44.3881000000	  33.7440000000	  31.3932000000
H	  44.8668000000	  32.3103000000	  32.3032000000
H	  45.9835000000	  33.7233000000	  32.0655000000
H	  44.5027000000	  31.0289000000	  30.2194000000
H	  45.2259000000	  31.2015000000	  28.5944000000
H	  46.1929000000	  30.7204000000	  29.9745000000
H	  45.7616000000	  35.5358000000	  29.3962000000
H	  46.9545000000	  35.1377000000	  30.7657000000
H	  47.3684000000	  35.3496000000	  29.1231000000
O	  47.4858000000	  33.8627000000	  25.3442000000
N	  46.8534000000	  35.8955000000	  25.9898000000
C	  47.7950000000	  35.0281000000	  25.5118000000
C	  47.2000000000	  37.2892000000	  26.2522000000
C	  45.3713000000	  35.5187000000	  26.2941000000
C	  49.1593000000	  35.5707000000	  25.0323000000
H	  48.0652000000	  37.3722000000	  26.8936000000
H	  47.5780000000	  37.8243000000	  25.2983000000
H	  46.4227000000	  37.7729000000	  26.7658000000
H	  45.0573000000	  35.6607000000	  27.3271000000
H	  44.7737000000	  35.9773000000	  25.4989000000
H	  45.1357000000	  34.4992000000	  26.3398000000
H	  49.2058000000	  35.8801000000	  23.9696000000
H	  49.4970000000	  36.5007000000	  25.5657000000
H	  49.9069000000	  34.8718000000	  25.3244000000
N	  44.8124000000	  29.1486000000	  26.4701000000
S	  44.5931000000	  27.5542000000	  26.3058000000
O	  43.9277000000	  27.2203000000	  25.0801000000
O	  45.6940000000	  26.6897000000	  26.7197000000
C	  43.2928000000	  27.2169000000	  27.5335000000
F	  42.9186000000	  25.9428000000	  27.6400000000
F	  42.1506000000	  27.7841000000	  27.2250000000
F	  43.6157000000	  27.5636000000	  28.7731000000
S	  44.7660000000	  30.2909000000	  25.3515000000
O	  44.5239000000	  29.7599000000	  24.0393000000
O	  45.8218000000	  31.2856000000	  25.6087000000
C	  43.2051000000	  31.1355000000	  25.8052000000
F	  43.2024000000	  31.4033000000	  27.1362000000
F	  42.9447000000	  32.2933000000	  25.1917000000
F	  42.2176000000	  30.3157000000	  25.6379000000
