50

Li	  42.1191000000	  23.1948000000	  20.3154000000
O	  41.0581000000	  22.2152000000	  19.0857000000
O	  40.4171000000	  22.4178000000	  16.9539000000
C	  41.2009000000	  20.9210000000	  18.4630000000
C	  40.8364000000	  21.0682000000	  17.0024000000
C	  40.0855000000	  22.7078000000	  18.2793000000
H	  42.2285000000	  20.4722000000	  18.5537000000
H	  40.5208000000	  20.3033000000	  19.0467000000
H	  41.6892000000	  20.8118000000	  16.3785000000
H	  39.9908000000	  20.4493000000	  16.7036000000
H	  39.0704000000	  22.3372000000	  18.4451000000
H	  40.0970000000	  23.8087000000	  18.4128000000
O	  40.8279000000	  24.2673000000	  21.2479000000
N	  39.9568000000	  23.7094000000	  23.2810000000
C	  40.7326000000	  24.4426000000	  22.4887000000
C	  39.7368000000	  24.1145000000	  24.6895000000
C	  39.3046000000	  22.4876000000	  22.7280000000
C	  41.2973000000	  25.7925000000	  23.0147000000
H	  39.5565000000	  25.2036000000	  24.8529000000
H	  38.8622000000	  23.5695000000	  25.1528000000
H	  40.6673000000	  23.9140000000	  25.3169000000
H	  38.4524000000	  22.1299000000	  23.3087000000
H	  39.1702000000	  22.4703000000	  21.6613000000
H	  39.9628000000	  21.6988000000	  23.0145000000
H	  42.1943000000	  25.6207000000	  23.6182000000
H	  41.7080000000	  26.2612000000	  22.1056000000
H	  40.5966000000	  26.4342000000	  23.5030000000
O	  43.3689000000	  24.2863000000	  19.4680000000
N	  44.2012000000	  25.7076000000	  17.8993000000
C	  44.1824000000	  25.1707000000	  19.1287000000
C	  43.3422000000	  25.1744000000	  16.8421000000
C	  44.9263000000	  26.8654000000	  17.4879000000
C	  45.1874000000	  25.6047000000	  20.2070000000
H	  42.4241000000	  25.7762000000	  16.7852000000
H	  43.8129000000	  25.2080000000	  15.8614000000
H	  43.1070000000	  24.0849000000	  16.9819000000
H	  44.5375000000	  27.3881000000	  16.7533000000
H	  45.0855000000	  27.4556000000	  18.3796000000
H	  45.8842000000	  26.5165000000	  17.1431000000
H	  44.7668000000	  26.5310000000	  20.5883000000
H	  45.2327000000	  24.7488000000	  20.9557000000
H	  46.1328000000	  25.8499000000	  19.7568000000
S	  43.2062000000	  21.8135000000	  21.5183000000
S	  42.2067000000	  20.0238000000	  22.2395000000
S	  43.4637000000	  18.3077000000	  22.3173000000
S	  46.9300000000	  16.0444000000	  19.7628000000
S	  47.6203000000	  15.1367000000	  17.9532000000
S	  48.9101000000	  13.5081000000	  18.1879000000
S	  45.0635000000	  15.5142000000	  20.5831000000
S	  43.7074000000	  17.1260000000	  20.5124000000
