61

Li	  21.9245000000	  38.7391000000	   1.1455400000
O	  20.9033000000	  39.9593000000	  -0.1671324815
N	  19.4887000000	  41.7154000000	   0.1189675185
C	  19.7937000000	  40.4082000000	  -0.2739324815
C	  18.1445000000	  42.0966000000	   0.5906675185
C	  20.5404000000	  42.6873000000	   0.4074675185
C	  18.6618000000	  39.4986000000	  -0.7682324815
H	  17.5510000000	  42.3355000000	  -0.1939324815
H	  17.5806000000	  41.3521000000	   1.1289700000
H	  18.2072000000	  42.9570000000	   1.2902500000
H	  21.3218000000	  42.7040000000	  -0.3642324815
H	  20.2209000000	  43.7122000000	   0.4721675185
H	  21.0564000000	  42.4588000000	   1.3238900000
H	  18.0560000000	  39.8859000000	  -1.5750324815
H	  19.0319000000	  38.5986000000	  -1.2905324815
H	  18.1227000000	  39.2146000000	   0.0719675185
O	  23.6749000000	  37.9726000000	   0.5108675185
N	  24.3225000000	  37.0737000000	  -1.3930324815
C	  24.3177000000	  37.1522000000	  -0.0515324815
C	  24.9490000000	  36.0135000000	  -2.1681324815
C	  23.8852000000	  38.2217000000	  -2.2059324815
C	  25.1276000000	  36.1021000000	   0.7848350000
H	  24.2990000000	  35.4197000000	  -2.8624324815
H	  25.7600000000	  36.3603000000	  -2.7395324815
H	  25.3684000000	  35.2956000000	  -1.5196324815
H	  24.0962000000	  38.0454000000	  -3.2729324815
H	  22.8286000000	  38.4481000000	  -2.0200324815
H	  24.3580000000	  39.1339000000	  -1.8248324815
H	  25.0100000000	  36.2156000000	   1.7774400000
H	  24.8693000000	  35.0904000000	   0.4558675185
H	  26.1987000000	  36.1963000000	   0.5569675185
N	  20.4383000000	  35.1333000000	  -0.0843324815
S	  19.6845000000	  34.4887000000	  -1.3009324815
O	  20.1346000000	  33.1683000000	  -1.6855324815
O	  18.2309000000	  34.7027000000	  -1.3148324815
C	  20.2978000000	  35.6084000000	  -2.5732324815
F	  20.0379000000	  35.1664000000	  -3.8117324815
F	  21.5721000000	  35.7510000000	  -2.5117324815
F	  19.7843000000	  36.8012000000	  -2.5731324815
S	  19.9810000000	  36.0831000000	   1.1034100000
O	  18.5649000000	  36.2105000000	   1.1340300000
O	  20.8605000000	  37.1761000000	   1.3526700000
C	  20.3087000000	  34.9948000000	   2.5740400000
F	  21.4507000000	  34.2608000000	   2.3985300000
F	  20.4974000000	  35.6628000000	   3.7083600000
F	  19.3816000000	  34.0706000000	   2.9277000000
N	  24.5441000000	  40.4786000000	   2.5998500000
S	  23.1753000000	  40.3364000000	   3.3960200000
O	  22.9243000000	  41.3834000000	   4.3938300000
O	  22.1347000000	  39.7791000000	   2.5633100000
C	  23.6080000000	  38.8726000000	   4.3680000000
F	  24.0426000000	  37.8777000000	   3.6302100000
F	  22.5308000000	  38.4531000000	   5.0586900000
F	  24.5048000000	  39.0566000000	   5.3007400000
S	  24.7853000000	  41.0370000000	   1.1192700000
O	  23.5575000000	  41.3922000000	   0.3995675185
O	  25.8815000000	  40.3378000000	   0.4706675185
C	  25.5968000000	  42.6309000000	   1.5078800000
F	  24.8436000000	  43.5667000000	   2.0733900000
F	  26.5634000000	  42.4094000000	   2.3654000000
F	  26.1742000000	  43.2057000000	   0.4312675185
