54

Li	   6.4144400000	  31.0633000000	  28.7096000000
O	   5.3065000000	  32.5106000000	  28.0236000000
N	   4.7786600000	  33.6349000000	  26.1449000000
C	   4.4706900000	  32.8188000000	  27.1858000000
C	   3.9167200000	  34.0380000000	  25.0402000000
C	   6.1194500000	  34.2205000000	  26.1106000000
C	   3.1385200000	  32.0493000000	  27.1144000000
H	   3.6945500000	  33.1581000000	  24.4333000000
H	   2.9836600000	  34.4774000000	  25.4619000000
H	   4.2420800000	  34.7325000000	  24.3232000000
H	   6.3618400000	  34.5615000000	  25.2120000000
H	   6.2726200000	  35.1429000000	  26.6593000000
H	   6.9724800000	  33.5645000000	  26.3581000000
H	   3.0233500000	  31.4499000000	  26.2558000000
H	   2.8643600000	  31.4104000000	  28.0054000000
H	   2.3460300000	  32.7751000000	  27.0445000000
O	   6.7442100000	  29.8269000000	  27.4037000000
N	   6.2028200000	  28.7480000000	  25.4788000000
C	   6.7305900000	  28.8082000000	  26.6903000000
C	   6.3487000000	  27.5880000000	  24.6450000000
C	   5.7456000000	  29.9167000000	  24.8205000000
C	   7.4385100000	  27.5934000000	  27.2924000000
H	   6.1713300000	  27.8185000000	  23.6030000000
H	   7.3999500000	  27.1287000000	  24.6911000000
H	   5.6262500000	  26.7599000000	  24.8474000000
H	   4.7279100000	  29.9297000000	  24.4316000000
H	   5.7642300000	  30.8510000000	  25.4478000000
H	   6.3933300000	  30.0185000000	  23.8879000000
H	   8.4376800000	  27.3045000000	  26.9044000000
H	   7.5274800000	  27.6743000000	  28.3979000000
H	   6.8065000000	  26.7572000000	  27.1595000000
N	   4.2228900000	  27.9581000000	  29.2068000000
S	   3.2223000000	  27.6061000000	  28.0335000000
O	   1.9990800000	  28.4113000000	  27.7784000000
O	   3.9154600000	  27.0614000000	  26.9052000000
C	   2.4265400000	  26.1030000000	  28.8225000000
F	   3.0285200000	  25.0160000000	  28.4622000000
F	   1.2064900000	  25.9309000000	  28.4068000000
F	   2.2927000000	  26.1919000000	  30.1500000000
S	   4.0760300000	  29.1582000000	  30.1615000000
O	   2.6985700000	  29.4394000000	  30.5686000000
O	   5.0015900000	  30.2056000000	  29.7241000000
C	   4.9126600000	  28.4838000000	  31.6278000000
F	   4.3048200000	  27.3729000000	  32.1601000000
F	   6.1563400000	  28.1888000000	  31.2753000000
F	   4.9206100000	  29.3077000000	  32.6626000000
S	  16.6236000000	  28.8555000000	  34.1321000000
S	  14.8237000000	  28.4593000000	  35.1774000000
S	  13.4277000000	  28.2033000000	  33.6934000000
S	   8.7121300000	  29.5371000000	  33.0730000000
S	   7.8454100000	  31.2822000000	  32.3246000000
S	   7.9171700000	  31.4905000000	  30.2385000000
S	  10.3537000000	  29.9623000000	  34.4102000000
S	  12.3386000000	  29.9817000000	  33.4758000000
