39

Li	  17.7471000000	  24.2317000000	  35.6215000000
O	  16.9412000000	  24.6813000000	  33.9838000000
O	  16.3126000000	  26.1261000000	  32.4364000000
C	  17.7228000000	  24.4137000000	  32.8554000000
C	  17.1013000000	  25.2084000000	  31.7486000000
C	  15.8974000000	  25.4032000000	  33.5259000000
H	  18.7975000000	  24.5697000000	  32.9540000000
H	  17.6531000000	  23.3568000000	  32.6364000000
H	  17.8167000000	  25.6983000000	  31.0714000000
H	  16.4936000000	  24.6204000000	  31.0818000000
H	  15.0617000000	  24.8430000000	  33.1773000000
H	  15.5797000000	  26.0224000000	  34.3507000000
O	  15.2979000000	  23.7736000000	  38.8831000000
O	  16.7473000000	  24.3064000000	  37.2272000000
C	  14.8298000000	  24.8339000000	  38.2248000000
C	  16.1068000000	  25.4345000000	  37.7394000000
C	  16.3913000000	  23.2911000000	  38.1175000000
H	  14.2474000000	  24.5129000000	  37.3622000000
H	  14.2521000000	  25.4848000000	  38.9371000000
H	  15.9977000000	  26.1890000000	  36.9663000000
H	  16.6548000000	  25.8720000000	  38.5939000000
H	  17.1664000000	  22.8777000000	  38.6598000000
H	  15.8591000000	  22.6183000000	  37.4963000000
S	  24.5321000000	  19.5876000000	  40.5440000000
S	  25.4272000000	  21.2617000000	  39.5037000000
S	  24.1076000000	  22.0597000000	  38.0236000000
S	  22.4377000000	  26.4459000000	  37.2027000000
S	  20.3725000000	  25.9752000000	  37.3755000000
S	  19.4121000000	  25.5954000000	  35.5910000000
S	  23.4465000000	  25.3154000000	  38.5892000000
S	  24.7012000000	  23.9679000000	  37.5164000000
S	  18.1133000000	  22.0550000000	  35.1928000000
S	  16.3956000000	  20.8536000000	  35.0706000000
S	  14.6108000000	  21.9000000000	  34.9950000000
S	  10.2937000000	  23.0602000000	  37.2029000000
S	   9.9128000000	  24.8724000000	  36.1521000000
S	   8.0464300000	  24.7983000000	  35.2290000000
S	  11.0555000000	  21.7206000000	  35.8119000000
S	  13.0508000000	  21.2508000000	  36.3427000000
