57

Li	  53.7082000000	  14.7858000000	  17.3351000000
O	  53.1350000000	  13.0419000000	  17.2452000000
O	  53.7807000000	  11.1410000000	  16.3238000000
C	  52.5214000000	  12.1363000000	  18.1804000000
C	  53.0421000000	  10.8466000000	  17.5422000000
C	  53.3210000000	  12.4127000000	  16.0408000000
H	  52.8238000000	  12.2468000000	  19.2183000000
H	  51.5087000000	  12.2505000000	  18.0195000000
H	  53.7055000000	  10.4301000000	  18.2276000000
H	  52.1391000000	  10.1681000000	  17.4086000000
H	  52.5133000000	  12.4366000000	  15.3444000000
H	  54.1744000000	  12.9441000000	  15.5184000000
O	  52.3342000000	  15.3268000000	  18.4515000000
N	  50.3973000000	  15.8438000000	  19.6331000000
C	  51.6389000000	  15.3532000000	  19.4772000000
C	  49.6658000000	  15.8467000000	  20.9117000000
C	  49.7093000000	  16.5077000000	  18.4752000000
C	  52.2414000000	  14.7228000000	  20.7081000000
H	  49.2042000000	  14.8824000000	  20.9659000000
H	  50.2850000000	  16.1269000000	  21.7441000000
H	  48.8671000000	  16.5832000000	  20.8418000000
H	  50.2577000000	  17.4453000000	  18.2368000000
H	  49.7635000000	  15.8529000000	  17.6381000000
H	  48.6680000000	  16.7099000000	  18.6849000000
H	  52.8162000000	  15.5695000000	  21.2067000000
H	  51.6109000000	  14.3189000000	  21.4184000000
H	  52.9514000000	  13.9708000000	  20.3782000000
N	  51.4655000000	  15.0240000000	  14.5690000000
S	  52.5059000000	  16.2165000000	  14.7457000000
O	  52.0102000000	  17.5174000000	  14.4517000000
O	  53.3531000000	  16.0530000000	  15.9143000000
C	  53.5874000000	  15.9770000000	  13.3190000000
F	  53.1727000000	  16.6098000000	  12.2413000000
F	  53.7541000000	  14.7426000000	  12.9768000000
F	  54.7706000000	  16.4365000000	  13.5819000000
S	  49.8648000000	  15.0381000000	  14.5911000000
O	  49.2327000000	  16.3090000000	  14.3595000000
O	  49.2160000000	  14.2138000000	  15.5362000000
C	  49.5514000000	  14.0179000000	  13.0679000000
F	  48.2762000000	  13.9079000000	  12.9113000000
F	  50.0125000000	  14.6330000000	  12.0150000000
F	  50.0586000000	  12.8094000000	  13.1674000000
N	  57.7979000000	  13.1057000000	  16.5317000000
S	  56.8559000000	  14.2166000000	  15.9840000000
O	  56.5258000000	  14.0040000000	  14.5973000000
O	  55.7789000000	  14.6465000000	  16.7990000000
C	  58.0194000000	  15.6781000000	  15.9187000000
F	  57.4812000000	  16.8078000000	  15.4077000000
F	  59.1238000000	  15.5548000000	  15.1846000000
F	  58.3302000000	  16.0847000000	  17.1084000000
S	  57.3636000000	  12.0461000000	  17.6563000000
O	  55.9786000000	  12.0791000000	  17.9881000000
O	  58.3585000000	  11.7885000000	  18.6696000000
C	  57.4678000000	  10.4999000000	  16.6412000000
F	  58.7781000000	  10.3197000000	  16.3526000000
F	  56.9556000000	   9.5251300000	  17.2238000000
F	  56.8752000000	  10.5755000000	  15.4819000000
