35

Li	  39.2385000000	  53.1962000000	  25.5110000000
O	  39.3301000000	  53.6045000000	  27.3713000000
O	  39.2028000000	  53.6594000000	  29.5897000000
C	  40.6121000000	  53.1981000000	  27.7596000000
C	  40.2891000000	  52.8957000000	  29.1804000000
C	  38.7088000000	  54.1429000000	  28.4137000000
H	  40.8301000000	  52.2620000000	  27.2528000000
H	  41.4054000000	  53.9890000000	  27.6892000000
H	  40.1736000000	  51.8493000000	  29.3468000000
H	  41.1519000000	  53.1714000000	  29.8417000000
H	  38.9399000000	  55.2700000000	  28.5246000000
H	  37.6744000000	  53.8524000000	  28.4424000000
O	  38.4891000000	  51.4535000000	  25.5933000000
N	  37.1056000000	  49.8440000000	  24.9749000000
C	  37.9061000000	  50.3978000000	  25.8691000000
C	  36.4014000000	  48.5490000000	  25.1246000000
C	  36.6896000000	  50.4280000000	  23.7321000000
C	  38.0988000000	  49.8480000000	  27.2279000000
H	  37.0289000000	  47.6590000000	  25.1603000000
H	  35.8559000000	  48.4670000000	  26.0741000000
H	  35.6642000000	  48.3268000000	  24.3440000000
H	  37.1353000000	  51.4269000000	  23.5237000000
H	  37.0238000000	  49.7511000000	  22.9065000000
H	  35.6352000000	  50.5232000000	  23.8030000000
H	  37.4985000000	  50.5362000000	  27.9494000000
H	  37.8421000000	  48.8228000000	  27.3533000000
H	  39.2408000000	  49.7988000000	  27.3905000000
S	  32.2222000000	  56.9415000000	  31.0429000000
S	  33.0976000000	  55.1374000000	  30.7005000000
S	  34.8786000000	  55.3341000000	  29.5549000000
S	  37.0561000000	  55.5755000000	  24.9107000000
S	  38.2599000000	  54.2826000000	  23.7970000000
S	  40.2710000000	  54.2649000000	  24.2108000000
S	  35.7736000000	  54.5333000000	  26.2673000000
S	  34.4354000000	  55.5644000000	  27.4962000000
