53

Li	  57.1845000000	   6.0236800000	  54.3500000000
O	  56.1664000000	   7.5275100000	  54.0657000000
O	  56.4286000000	   9.5382400000	  55.0878000000
C	  55.0417000000	   7.6563900000	  54.9162000000
C	  55.5138000000	   8.8197300000	  55.8486000000
C	  56.6300000000	   8.7958400000	  53.9570000000
H	  54.1702000000	   7.9156800000	  54.3957000000
H	  54.7787000000	   6.6778000000	  55.4337000000
H	  54.7631000000	   9.3915900000	  56.2897000000
H	  56.0889000000	   8.4857100000	  56.6827000000
H	  57.7582000000	   8.6506500000	  53.8996000000
H	  56.2006000000	   9.2093000000	  53.1022000000
O	  57.4058000000	   4.7454000000	  58.1941000000
O	  57.4417000000	   5.4123600000	  56.0576000000
C	  58.6062000000	   4.1989000000	  57.6789000000
C	  58.6577000000	   4.6682400000	  56.1994000000
C	  56.9533000000	   5.6298500000	  57.3058000000
H	  59.3052000000	   4.6727000000	  58.3924000000
H	  58.8108000000	   3.1272000000	  57.8695000000
H	  59.4968833644	   5.2393500000	  55.9762000000
H	  58.7198000000	   3.8746400000	  55.4939000000
H	  55.8859000000	   5.5299100000	  57.2890000000
H	  57.2729000000	   6.6171700000	  57.7191000000
O	  59.0096000000	   5.9719400000	  53.2801000000
N	  61.2301573644	   5.9065700000	  52.8423000000
C	  60.0511273644	   6.5039600000	  52.8170000000
C	  62.4046673644	   6.3655700000	  52.1195000000
C	  61.3616173644	   4.6449800000	  53.4919000000
C	  60.0070673644	   7.9056000000	  52.2014000000
H	  62.2602673644	   6.3411400000	  51.0410000000
H	  62.8148773644	   7.3201500000	  52.4564000000
H	  63.3078673644	   5.7388000000	  52.2767000000
H	  61.9565373644	   3.9671600000	  52.8971000000
H	  61.9323373644	   4.8302400000	  54.4253000000
H	  60.4727273644	   4.1210900000	  53.6741000000
H	  60.5792873644	   8.1015600000	  51.2400000000
H	  58.9403000000	   8.0326200000	  51.8350000000
H	  60.2548873644	   8.7031800000	  52.9209000000
O	  56.1657000000	   4.6088400000	  53.7651000000
N	  54.3824000000	   3.6877100000	  52.6217000000
C	  55.1311000000	   3.9141000000	  53.7583000000
C	  53.3379000000	   2.7059600000	  52.5400000000
C	  54.4452000000	   4.5350400000	  51.4215000000
C	  54.8797000000	   3.1201000000	  55.0341000000
H	  53.5107000000	   2.2062600000	  51.5280000000
H	  53.3042000000	   1.8348400000	  53.1804000000
H	  52.3312000000	   3.1241400000	  52.5443000000
H	  54.5374000000	   3.8552000000	  50.5994000000
H	  53.3993000000	   5.0133500000	  51.3890000000
H	  55.3490000000	   5.1701500000	  51.2898000000
H	  55.6303000000	   3.2532600000	  55.8278000000
H	  54.0075000000	   3.4264500000	  55.6296000000
H	  54.9688000000	   2.0835300000	  54.7190000000
