28

Li	  17.3211000000	  23.2691000000	  34.8546000000
O	  14.0444000000	  22.8141000000	  37.4329000000
O	  15.9257000000	  23.0079000000	  36.1935000000
C	  14.6706000000	  24.0574000000	  37.6896000000
C	  15.4217000000	  24.3120000000	  36.3933000000
C	  15.0255000000	  22.1680000000	  36.7905000000
H	  13.8486000000	  24.8568000000	  37.6889000000
H	  15.3431000000	  24.2193000000	  38.5839000000
H	  14.7609000000	  24.5106000000	  35.5883000000
H	  16.2560000000	  24.9924000000	  36.6208000000
H	  15.5448000000	  21.4972000000	  37.4966000000
H	  14.6483000000	  21.3711000000	  36.1558000000
S	  16.7288000000	  22.5005000000	  44.3212000000
S	  16.3232000000	  22.3564000000	  42.2599000000
S	  17.7627000000	  21.2805000000	  41.0990000000
S	  19.8574000000	  23.1039000000	  36.4761000000
S	  19.1326000000	  24.9806000000	  35.9430000000
S	  18.3727000000	  24.9773000000	  33.8805000000
S	  18.6579000000	  22.0034000000	  37.8414000000
S	  18.9955000000	  22.5200000000	  39.8629000000
S	  17.4210000000	  21.5309000000	  33.7345000000
S	  15.6243000000	  22.3608000000	  33.0160000000
S	  14.6013000000	  20.7892000000	  32.1447000000
S	  10.9854000000	  21.1819000000	  35.7367000000
S	   8.8871700000	  21.5307000000	  35.6323000000
S	   8.3680000000	  23.4026000000	  34.8336000000
S	  11.4713000000	  20.2845000000	  33.9538000000
S	  13.4902000000	  19.7123000000	  33.6359000000
