39

Li	  25.8149000000	  50.7780000000	  22.2627000000
N	  27.1124000000	  47.8913000000	  25.1622000000
S	  26.8159000000	  47.9490000000	  23.6474000000
O	  26.5247000000	  49.3064000000	  23.2000000000
O	  27.5740000000	  47.0544000000	  22.8575000000
C	  25.1781000000	  47.1846000000	  23.6159000000
F	  24.6679000000	  47.1119000000	  22.3622000000
F	  24.2879000000	  47.7379000000	  24.4160000000
F	  25.2162000000	  45.9051000000	  23.9910000000
S	  28.4202000000	  47.6198000000	  25.9415000000
O	  28.5207000000	  48.6808000000	  26.9751000000
O	  29.5388000000	  47.2612000000	  25.1012000000
C	  27.9968000000	  46.0958000000	  26.7840000000
F	  26.8081000000	  46.2350000000	  27.4131000000
F	  27.9167000000	  45.0350000000	  25.9951000000
F	  28.9061000000	  45.9491000000	  27.7454000000
N	  28.2572000000	  51.0083000000	  18.9238000000
S	  29.0476000000	  50.1303000000	  17.8468000000
O	  28.8690000000	  50.5723000000	  16.4790000000
O	  30.3588000000	  49.7442000000	  18.2996000000
C	  28.0268000000	  48.6470000000	  17.8563000000
F	  28.6259000000	  47.5958000000	  17.3520000000
F	  26.9512000000	  48.8202000000	  17.1373000000
F	  27.5964000000	  48.3713000000	  19.0967000000
S	  28.5639000000	  51.3278000000	  20.4145000000
O	  29.8144000000	  50.7817000000	  20.8344000000
O	  27.3869000000	  51.2898000000	  21.2905000000
C	  28.7350000000	  53.1646000000	  20.2296000000
F	  29.4544000000	  53.7139000000	  21.1377000000
F	  29.3056000000	  53.4873000000	  19.1115000000
F	  27.6186000000	  53.8292000000	  20.3445000000
S	  23.4601000000	  48.6813000000	  11.8870000000
S	  22.5163000000	  49.2242000000	  13.7361000000
S	  23.3807000000	  48.6656000000	  15.5482000000
S	  24.6661000000	  49.9139000000	  20.1895000000
S	  24.2259000000	  51.8446000000	  20.9862000000
S	  23.9909000000	  51.6222000000	  23.1109000000
S	  22.9709000000	  49.1316000000	  19.1107000000
S	  22.8043000000	  49.9125000000	  17.1521000000
