49

Li	  33.1077000000	   5.3403300000	  28.5197000000
O	  32.8433000000	   8.6688600000	  27.6439000000
O	  33.6506000000	   6.9694000000	  28.7422000000
C	  34.2348000000	   8.4049600000	  27.1415000000
C	  34.7920000000	   7.2878600000	  27.9960000000
C	  32.7718000000	   8.0658800000	  28.8222000000
H	  34.1691000000	   8.0984300000	  26.0501000000
H	  34.9565000000	   9.2361800000	  27.1950000000
H	  35.2029000000	   6.4053600000	  27.4828000000
H	  35.5381000000	   7.7211100000	  28.5553000000
H	  33.0733000000	   8.7690900000	  29.5535000000
H	  31.7527000000	   7.7160500000	  28.9726000000
O	  29.8843000000	   3.3496900000	  30.5338000000
O	  31.4944000000	   4.6065100000	  29.5304000000
C	  30.1930000000	   4.3229800000	  31.4740000000
C	  30.9248000000	   5.3537600000	  30.6362000000
C	  30.6758000000	   3.4498200000	  29.4401000000
H	  29.1961000000	   4.7184600000	  31.8095000000
H	  30.6916000000	   3.9174400000	  32.3548000000
H	  30.2194000000	   6.1444800000	  30.3351000000
H	  31.6834000000	   5.9967200000	  31.0917000000
H	  31.3616000000	   2.6080100000	  29.4054000000
H	  30.0958000000	   3.4201500000	  28.5252000000
O	  34.5685000000	   4.3477100000	  29.6937000000
O	  35.5539000000	   2.7905000000	  31.0163000000
C	  35.8542000000	   4.2610500000	  29.2850000000
C	  36.3353000000	   2.9508300000	  29.8569000000
C	  34.5129000000	   3.6970300000	  30.9466000000
H	  35.9501000000	   4.2780500000	  28.1962000000
H	  36.3933000000	   5.0849600000	  29.6900000000
H	  36.0055000000	   2.1334300000	  29.2759000000
H	  37.4846000000	   2.8717600000	  29.9856000000
H	  34.6488000000	   4.3307400000	  31.7720000000
H	  33.5783000000	   3.1433000000	  31.1348000000
N	  32.5891000000	   4.5736000000	  24.9564000000
S	  31.7121000000	   5.7157000000	  25.5601000000
O	  31.7417000000	   5.8315200000	  27.0336000000
O	  31.8375000000	   6.9193200000	  24.7842000000
C	  30.0152000000	   5.1397200000	  25.2290000000
F	  29.6390000000	   4.2266900000	  26.1203000000
F	  29.9176000000	   4.5749100000	  24.0077000000
F	  29.1713000000	   6.1853200000	  25.2713000000
S	  33.7654000000	   3.7963600000	  25.6442000000
O	  33.9221000000	   4.0574600000	  27.0461000000
O	  34.8685000000	   3.3929900000	  24.8178000000
C	  33.0135000000	   2.1517800000	  25.6865000000
F	  32.7890000000	   1.7412600000	  24.4312000000
F	  33.6996000000	   1.2110100000	  26.3018000000
F	  31.8220000000	   2.2560400000	  26.2356000000
