49

Li	  42.4178000000	  14.8684000000	  44.7720000000
O	  42.4165000000	  16.0637000000	  48.4804000000
O	  42.7517000000	  16.0590000000	  46.2855000000
C	  43.5836000000	  16.8542000000	  48.2941000000
C	  43.9600000000	  16.5165000000	  46.8512000000
C	  41.7822000000	  16.1710000000	  47.2419000000
H	  43.2846000000	  17.8719000000	  48.7301000000
H	  44.2952000000	  16.4589000000	  48.9774000000
H	  44.3658000000	  17.2928000000	  46.2944000000
H	  44.7087000000	  15.7242000000	  46.8560000000
H	  40.9026000000	  15.5860000000	  47.0326000000
H	  41.5102000000	  17.2382000000	  47.2089000000
O	  41.7217000000	  13.0095000000	  45.2513000000
O	  40.1202000000	  11.6115000000	  45.5175000000
C	  42.2536000000	  11.8815000000	  44.5403000000
C	  41.0291000000	  10.9419000000	  44.6497000000
C	  40.9009000000	  12.4736000000	  46.1752000000
H	  42.4845000000	  12.1098000000	  43.4727000000
H	  43.1395000000	  11.4856000000	  45.0184000000
H	  40.5942000000	  10.7346000000	  43.5762000000
H	  41.3077000000	   9.9739100000	  45.0969000000
H	  41.4313000000	  11.9264000000	  46.9691000000
H	  40.2817000000	  13.1509000000	  46.8143000000
O	  42.0491000000	  15.8435000000	  42.7354000000
O	  40.6986000000	  16.0508000000	  44.4141000000
C	  40.9975000000	  14.9037000000	  42.4440000000
C	  39.9782000000	  15.2085000000	  43.5358000000
C	  41.4894000000	  16.7853000000	  43.5246000000
H	  40.4806000000	  14.9567000000	  41.4688000000
H	  41.4058000000	  13.9706000000	  42.5619000000
H	  39.1867000000	  15.8317000000	  43.1553000000
H	  39.4576000000	  14.3179000000	  44.0012000000
H	  42.3027000000	  17.3793000000	  44.0554000000
H	  40.7366000000	  17.3963000000	  42.9433000000
N	  46.5134000000	  13.4383000000	  42.6410000000
S	  46.0955000000	  12.1054000000	  42.0272000000
O	  47.1671000000	  11.3046000000	  41.4881000000
O	  45.2205000000	  11.3697000000	  42.9020000000
C	  45.0372000000	  12.5369000000	  40.6551000000
F	  43.8685000000	  12.9508000000	  41.0275000000
F	  44.7911000000	  11.4879000000	  39.9046000000
F	  45.4952000000	  13.4998000000	  39.8458000000
S	  45.6837000000	  14.3590000000	  43.6341000000
O	  46.3031000000	  14.5159000000	  44.9400000000
O	  44.2721000000	  14.2486000000	  43.6092000000
C	  45.9272000000	  15.9589000000	  42.8270000000
F	  45.2691000000	  15.9709000000	  41.6736000000
F	  45.3976000000	  16.9073000000	  43.5656000000
F	  47.1611000000	  16.2820000000	  42.5489000000
