53

Li	  32.9855000000	  55.8992000000	  43.1429000000
O	  34.8337000000	  52.2657000000	  42.9167000000
O	  34.2135000000	  54.5053000000	  43.0625000000
C	  34.2352000000	  52.5799000000	  41.6893000000
C	  34.4529000000	  54.1144000000	  41.7201000000
C	  34.5417000000	  53.3171000000	  43.7744000000
H	  34.7738000000	  52.2765000000	  40.7998000000
H	  33.2173000000	  52.2682000000	  41.6889000000
H	  35.5078000000	  54.1318000000	  41.4786000000
H	  33.8264000000	  54.6955000000	  41.0114000000
H	  33.8383000000	  53.0135000000	  44.4962000000
H	  35.4394000000	  53.6096000000	  44.2816000000
O	  32.4636000000	  55.6350000000	  45.0268000000
O	  32.4209000000	  56.0181000000	  47.1987000000
C	  31.5278000000	  56.6768000000	  45.1491000000
C	  31.8400000000	  57.1352000000	  46.5741000000
C	  32.2390000000	  55.0349000000	  46.2942000000
H	  31.6491000000	  57.5722000000	  44.4828000000
H	  30.4792000000	  56.3170000000	  45.0600000000
H	  32.5205000000	  57.9883000000	  46.7331000000
H	  30.9729000000	  57.5460000000	  47.1126000000
H	  31.2264000000	  54.6541000000	  46.5083000000
H	  32.9029000000	  54.1452000000	  46.4936000000
N	  34.7192000000	  60.1050151103	  42.5246000000
S	  34.6039000000	  60.3260451103	  44.1256000000
O	  34.2255000000	  59.1028000000	  44.8188000000
O	  35.6623000000	  61.0758751103	  44.7000000000
C	  33.3129000000	  61.5236851103	  44.1797000000
F	  33.5985000000	  62.6562651103	  43.5140000000
F	  32.9392000000	  61.9496451103	  45.3753000000
F	  32.1819000000	  61.1036651103	  43.6939000000
S	  34.6545000000	  58.6474000000	  41.8756000000
O	  34.1816000000	  57.5440000000	  42.6404000000
O	  35.7197000000	  58.4280000000	  40.9866000000
C	  33.3073000000	  59.0520000000	  40.7175000000
F	  32.2163000000	  59.4089451103	  41.3246000000
F	  33.6578000000	  60.0683751103	  39.9819000000
F	  32.9839000000	  58.1126000000	  39.8010000000
N	  29.1163000000	  54.7962000000	  42.4303000000
S	  29.4386000000	  53.6398000000	  43.3999000000
O	  30.6863000000	  52.9329000000	  43.1261000000
O	  29.1410000000	  53.9653000000	  44.7316000000
C	  28.1335000000	  52.4282000000	  42.9603000000
F	  27.8570000000	  51.4489000000	  43.8166000000
F	  28.4221000000	  51.8622000000	  41.8208000000
F	  27.0061000000	  53.0586000000	  42.8410000000
S	  30.1454000000	  55.5514000000	  41.4079000000
O	  30.0509000000	  54.9672000000	  40.1126000000
O	  31.4707000000	  55.8349000000	  41.9139000000
C	  29.4048000000	  57.2058000000	  41.2918000000
F	  30.0845000000	  58.0105000000	  40.4652000000
F	  28.1655000000	  57.1620000000	  40.8993000000
F	  29.4376000000	  57.8132000000	  42.5145000000
