57

Li	  23.3782000000	  45.7913000000	  50.7598000000
O	  22.5539000000	  46.5550000000	  46.2730000000
O	  22.7270000000	  45.9594000000	  48.5350000000
C	  21.3106000000	  46.0576000000	  46.6423000000
C	  21.4396000000	  46.3908000000	  48.1975000000
C	  23.3148000000	  45.9398000000	  47.2661000000
H	  20.4593000000	  46.6887000000	  46.1959000000
H	  21.1083000000	  45.0237000000	  46.4282000000
H	  21.3688000000	  47.4285000000	  48.4630000000
H	  20.7008000000	  45.8077000000	  48.7483000000
H	  23.7171000000	  45.0316000000	  46.9011000000
H	  24.2674000000	  46.5063000000	  47.2624000000
O	  22.0843000000	  44.6706000000	  51.7142000000
O	  21.1672000000	  43.3878000000	  53.2460000000
C	  20.8676000000	  45.2285000000	  52.1953000000
C	  20.0981000000	  44.0671000000	  52.7495000000
C	  22.1310000000	  43.4036000000	  52.2655000000
H	  21.1570000000	  45.9193000000	  53.0162000000
H	  20.3319000000	  45.7331000000	  51.4713000000
H	  19.4012000000	  44.2853000000	  53.5430000000
H	  19.5930000000	  43.4547000000	  51.9771000000
H	  21.9560000000	  42.5965000000	  51.5416000000
H	  23.1444000000	  43.2835000000	  52.6313000000
O	  26.6115000000	  43.6463000000	  49.5950000000
O	  24.5467000000	  44.4740000000	  49.9019000000
C	  25.7759000000	  42.6294000000	  49.1106000000
C	  24.3354000000	  43.1943000000	  49.3633000000
C	  25.8768000000	  44.7839000000	  49.5802000000
H	  25.9454000000	  42.5020000000	  48.0664000000
H	  26.0102000000	  41.7106000000	  49.6353000000
H	  23.7122000000	  43.2294000000	  48.5274000000
H	  23.7784000000	  42.5567000000	  50.1025000000
H	  26.1900000000	  45.4058000000	  50.3279000000
H	  26.1110000000	  45.2737000000	  48.6237000000
N	  25.9479000000	  46.9270000000	  54.5439000000
S	  26.3115000000	  48.2888000000	  53.8198000000
O	  26.1517000000	  48.3337000000	  52.3659000000
O	  25.7807000000	  49.3875000000	  54.5788000000
C	  28.0437000000	  48.2431000000	  54.1429000000
F	  28.6351000000	  47.2244000000	  53.5201000000
F	  28.1899000000	  47.9286000000	  55.4289000000
F	  28.6911000000	  49.3176000000	  53.8198000000
S	  25.1710000000	  45.6507000000	  53.9663000000
O	  24.5743000000	  45.8258000000	  52.5924000000
O	  24.4124000000	  44.8752000000	  54.9430000000
C	  26.6684000000	  44.5824000000	  53.7187000000
F	  26.3992000000	  43.3678000000	  53.1868000000
F	  27.5827000000	  45.0254000000	  52.8687000000
F	  27.3446000000	  44.4139000000	  54.8506000000
S	  23.5005000000	  47.8529000000	  50.3654000000
S	  22.0512000000	  48.4358000000	  51.7521000000
S	  20.2502000000	  48.9925000000	  50.8581000000
S	  21.5084000000	  53.2677000000	  52.6548000000
S	  23.3847000000	  53.1881000000	  51.7710000000
S	  24.3001000000	  51.3202000000	  52.2595000000
S	  19.8563000000	  52.4073000000	  51.5277000000
S	  19.2128000000	  50.4964000000	  52.0666000000
