24

Li	  19.4400000000	  46.6528000000	  19.3484000000
N	  20.9844000000	  43.9205000000	  20.7633000000
S	  21.4398000000	  44.2614000000	  19.3207000000
O	  20.7449000000	  45.4144000000	  18.7066000000
O	  22.8617000000	  44.1381000000	  19.1802000000
C	  20.7607000000	  42.7491000000	  18.3588000000
F	  20.7501000000	  42.8610000000	  17.0015000000
F	  19.4946000000	  42.4890000000	  18.6584000000
F	  21.4425000000	  41.6059000000	  18.6149000000
S	  20.0810000000	  44.6982000000	  21.7541000000
O	  19.0001000000	  45.3802000000	  21.0662000000
O	  20.8544000000	  45.4047000000	  22.7438000000
C	  19.1813000000	  43.4370000000	  22.6897000000
F	  20.0617000000	  42.8852000000	  23.5693000000
F	  18.1672000000	  43.9860000000	  23.3969000000
F	  18.7687000000	  42.5266000000	  21.9464000000
S	  20.8455000000	  47.8086000000	  11.1038000000
S	  19.7707000000	  48.4704000000	  12.7533000000
S	  19.6207000000	  46.8006000000	  14.0768000000
S	  16.0829000000	  46.3018000000	  17.0380000000
S	  17.1627000000	  46.7077000000	  18.8323000000
S	  18.4020000000	  48.3007000000	  18.7880000000
S	  17.0475000000	  45.0199000000	  15.7324000000
S	  17.5781000000	  46.1961000000	  14.0477000000
