46

Li	  32.5936000000	  36.8827000000	  17.9553000000
O	  33.4155000000	  38.4362000000	  22.0460000000
O	  33.3534000000	  37.7522000000	  19.8282000000
C	  34.7637000000	  38.3297000000	  21.5725000000
C	  34.6799000000	  38.2984000000	  20.0756000000
C	  32.5734000000	  38.1846000000	  20.9307000000
H	  35.3746000000	  39.1200000000	  21.9440000000
H	  35.0283000000	  37.3705000000	  21.9657000000
H	  34.6610000000	  39.3083000000	  19.6917000000
H	  35.4868000000	  37.7755000000	  19.5422000000
H	  31.8131000000	  37.5022000000	  21.2191000000
H	  32.0557000000	  39.0647000000	  20.7420000000
O	  35.4702000000	  39.5150000000	  16.7004000000
O	  33.6339000000	  38.3199000000	  16.9130000000
C	  34.4157000000	  40.4958000000	  16.6469000000
C	  33.1341000000	  39.6494000000	  16.8501000000
C	  34.8685000000	  38.3607000000	  16.3631000000
H	  34.4389000000	  41.2647000000	  17.4253000000
H	  34.5691000000	  41.0434000000	  15.7448000000
H	  32.6543000000	  39.8559000000	  17.7781000000
H	  32.4430000000	  39.8134000000	  15.9396000000
H	  34.7578000000	  38.4749000000	  15.2917000000
H	  35.4866000000	  37.4854000000	  16.6043000000
N	  34.3191000000	  34.0582000000	  19.4674000000
S	  33.1125000000	  34.5849000000	  20.3328000000
O	  33.5102000000	  35.0475000000	  21.6623000000
O	  32.2070000000	  35.3016000000	  19.5779000000
C	  32.3624000000	  32.9288000000	  20.7242000000
F	  33.1799000000	  32.1513000000	  21.2801000000
F	  31.9268000000	  32.2466000000	  19.6794000000
F	  31.3195000000	  32.9412000000	  21.5341000000
S	  34.5883000000	  34.5939000000	  18.0189000000
O	  34.0504000000	  35.8879000000	  17.7683000000
O	  34.5288000000	  33.6163000000	  16.9487000000
C	  36.3733000000	  34.8482000000	  18.1127000000
F	  36.5976000000	  35.5765000000	  19.1918000000
F	  37.0863000000	  33.6859000000	  18.2643000000
F	  36.8225000000	  35.4222000000	  17.0106000000
S	  30.6024000000	  36.8578000000	  17.0057000000
S	  29.7317000000	  37.8205000000	  18.5761000000
S	  29.6618000000	  39.9022000000	  18.4507000000
S	  33.5522000000	  42.0280000000	  20.2264000000
S	  34.0582000000	  42.4534000000	  22.2403000000
S	  33.4135000000	  40.9609000000	  23.6279000000
S	  31.5151000000	  42.5246000000	  19.6152000000
S	  30.1372000000	  41.0310000000	  20.1884000000
