45

Li	   9.4665500000	  50.4537000000	  39.6391000000
O	   8.9544800000	  54.0591000000	  37.7411000000
O	   9.6258000000	  52.3094000000	  39.0457000000
C	   8.8719600000	  54.5290000000	  39.0236000000
C	   9.9125400000	  53.5402000000	  39.6397000000
C	   8.9904600000	  52.7099000000	  37.8517000000
H	   9.1485400000	  55.5219000000	  39.1949000000
H	   7.9015200000	  54.3577000000	  39.4782000000
H	  10.8911000000	  54.0183000000	  39.4183000000
H	   9.7961400000	  53.4928000000	  40.7619000000
H	   7.9913800000	  52.4093000000	  37.8141000000
H	   9.5579900000	  52.1888000000	  36.9441000000
F	   9.0940500000	  49.0918000000	  36.2755000000
F	  10.3431000000	  48.1642000000	  37.8207000000
F	   8.0981100000	  46.5379000000	  35.6109000000
F	  10.2685000000	  46.7821000000	  35.5487000000
O	   8.0596600000	  49.4068000000	  38.8242000000
C	   9.1870600000	  48.0357000000	  37.1161000000
C	   8.0022900000	  48.1147000000	  38.1499000000
C	   9.1974000000	  46.7005000000	  36.3663000000
C	   7.0596700000	  49.5450000000	  39.8062000000
C	   6.5453900000	  50.9171000000	  39.9891000000
H	   7.0032400000	  48.0001000000	  37.7214000000
H	   8.1298300000	  47.3490000000	  38.8760000000
H	   9.4591600000	  45.9262000000	  37.0845000000
H	   6.2225500000	  48.8830000000	  39.5364000000
H	   7.4017600000	  49.1555000000	  40.8275000000
H	   5.8586300000	  50.8812000000	  40.8594000000
H	   7.3288700000	  51.7074000000	  40.2146000000
H	   5.9256400000	  51.1790000000	  39.1401000000
N	  12.4405000000	  51.9139000000	  41.0828000000
S	  12.1860000000	  50.3942000000	  41.1771000000
O	  12.5219000000	  49.7433000000	  42.4262000000
O	  11.0126000000	  49.9162000000	  40.5837000000
C	  13.4291000000	  49.7674000000	  40.0600000000
F	  13.2978000000	  49.9985000000	  38.7866000000
F	  13.5802000000	  48.4403000000	  40.1748000000
F	  14.5829000000	  50.3038000000	  40.4618000000
S	  12.8383000000	  52.8405000000	  42.2162000000
O	  13.2635000000	  52.2009000000	  43.4475000000
O	  11.8937000000	  53.8994000000	  42.4376000000
C	  14.3046000000	  53.6473000000	  41.6080000000
F	  15.1812000000	  54.1388000000	  42.4743000000
F	  14.9368000000	  52.9055000000	  40.7253000000
F	  14.0025000000	  54.6886000000	  40.8296000000
