38

Li	  10.8518000000	  44.2670000000	  22.4992000000
O	  12.9526000000	  43.7342000000	  25.6459000000
O	  12.2021000000	  44.5622000000	  23.7385000000
C	  12.9980000000	  45.1891000000	  25.7626000000
C	  12.6116000000	  45.7690000000	  24.4151000000
C	  12.9731000000	  43.5885000000	  24.2808000000
H	  12.1351000000	  45.5335000000	  26.4307000000
H	  13.9097000000	  45.5986000000	  26.1543000000
H	  11.9193000000	  46.6425000000	  24.3280000000
H	  13.4485000000	  46.0896000000	  23.8934000000
H	  13.9159000000	  43.8577000000	  23.9695000000
H	  12.7210000000	  42.5534000000	  23.9452000000
O	   9.4396800000	  43.5484000000	  23.6589000000
O	   7.8805700000	  43.4400000000	  25.4206000000
C	   8.3795400000	  42.6148000000	  23.2953000000
C	   7.2523500000	  43.0087000000	  24.2630000000
C	   9.1884100000	  43.8332000000	  24.9467000000
H	   7.9513200000	  42.6794000000	  22.2671000000
H	   8.7494000000	  41.5910000000	  23.4016000000
H	   6.6283200000	  43.7502000000	  23.7414000000
H	   6.4493500000	  42.3263000000	  24.5486000000
H	   9.8475300000	  43.2364000000	  25.4535000000
H	   9.4090300000	  44.8743000000	  25.1408000000
N	  10.3245000000	  47.7039000000	  20.4695000000
S	  11.7178000000	  48.2186000000	  20.2392000000
O	  12.5878000000	  48.1629000000	  21.3681000000
O	  12.2650000000	  47.9726000000	  18.9034000000
C	  11.4743000000	  50.0537000000	  20.1050000000
F	  12.5262000000	  50.6806000000	  19.5363000000
F	  11.1837000000	  50.6797000000	  21.2060000000
F	  10.4628000000	  50.3404000000	  19.3791000000
S	   9.6284100000	  47.3737000000	  21.7986000000
O	   9.1760000000	  48.5582000000	  22.4545000000
O	  10.2029000000	  46.2423000000	  22.5556000000
C	   8.0134900000	  46.7060000000	  21.1754000000
F	   8.2082200000	  45.5529000000	  20.4970000000
F	   7.2234800000	  46.3653000000	  22.1615000000
F	   7.3953900000	  47.5151000000	  20.3447000000
