38

Li	  14.1568000000	   7.7224600000	  42.8474000000
O	  13.9514000000	   7.8654100000	  44.8830000000
O	  14.1704000000	   6.3859000000	  46.6125000000
C	  14.6496000000	   8.5256700000	  45.8542000000
C	  15.0327000000	   7.4838900000	  46.8785000000
C	  13.4629000000	   6.7151800000	  45.4906000000
H	  15.4803000000	   9.0084100000	  45.3980000000
H	  13.9144000000	   9.2194800000	  46.3214000000
H	  16.0174000000	   7.2002100000	  46.6517000000
H	  14.7907000000	   7.8591100000	  47.8402000000
H	  12.4664000000	   6.9698200000	  45.7308000000
H	  13.4655000000	   5.8657600000	  44.9262000000
F	  11.9866000000	   6.9732800000	  43.1108000000
F	  10.2876000000	   8.0938300000	  44.0762000000
F	   9.2700400000	   6.3281900000	  42.6738000000
F	   9.1892500000	   8.1541500000	  41.4519000000
O	  12.9130000000	   9.0706500000	  42.5883000000
C	  10.9522000000	   7.8659100000	  42.9278000000
C	  11.5203000000	   9.1494800000	  42.3911000000
C	   9.9539200000	   7.2230700000	  41.9668000000
C	  13.4146000000	  10.3930000000	  42.6378000000
C	  14.9097000000	  10.5233000000	  42.2819000000
H	  11.3028000000	   9.2442400000	  41.3320000000
H	  11.0790000000	  10.0248000000	  42.9752000000
H	  10.5562000000	   6.6782800000	  41.1704000000
H	  12.9516000000	  11.0286000000	  41.9387000000
H	  13.2196000000	  10.7762000000	  43.5645000000
H	  15.1360000000	  10.4850000000	  41.1708000000
H	  15.1455000000	  11.5222000000	  42.5297000000
H	  15.5252000000	   9.7554900000	  42.6689000000
S	  15.7989000000	   6.5714500000	  42.6053000000
S	  15.8967000000	   6.8618400000	  40.5888000000
S	  14.5674000000	   8.1435400000	  39.7360000000
S	  11.1000000000	   9.1699700000	  36.8773000000
S	   9.1140000000	   8.7091500000	  37.2319000000
S	   8.0139900000	   8.2194700000	  35.4858000000
S	  12.0501000000	   7.3089400000	  37.2680000000
S	  12.7741000000	   7.1747000000	  39.2721000000
