32

Li	   8.0783800000	  13.1083000000	  56.7222000000
N	   5.5817300000	  10.6178000000	  58.9001000000
S	   4.5553000000	   9.4096600000	  59.1991737989
O	   4.6550600000	   8.2140300000	  58.3509000000
O	   4.4207000000	   9.1773500000	  60.6169377989
C	   2.9826300000	  10.2910000000	  58.6549000000
F	   2.8083800000	  10.3012000000	  57.3554000000
F	   2.9596400000	  11.5451000000	  59.0657000000
F	   1.9044200000	   9.7144000000	  59.1987747989
S	   6.9081700000	  10.4901000000	  58.0692000000
O	   7.2813900000	  11.7568000000	  57.5369000000
O	   7.0000600000	   9.2513300000	  57.3362000000
C	   8.0348200000	  10.4407000000	  59.4558577989
F	   9.3086900000	  10.2973000000	  59.0790000000
F	   7.9268500000	  11.5276000000	  60.1891477989
F	   7.7391600000	   9.5016800000	  60.2816077989
S	   6.8905100000	  14.3718000000	  55.5198000000
S	   8.3590900000	  13.2961000000	  54.4883000000
S	   8.3960400000	  11.2466000000	  54.7085000000
S	  10.4293000000	   7.3167600000	  57.1255000000
S	   8.7492600000	   6.0542000000	  57.2081000000
S	   7.5680200000	   6.6073900000	  58.9051000000
S	  10.5437000000	   8.4441800000	  55.3668000000
S	  10.1225000000	  10.4877000000	  55.6050000000
S	  10.0643000000	  13.8005000000	  57.4029000000
S	   8.8580500000	  14.2645000000	  59.0844000000
S	   7.6009300000	  15.9892000000	  58.9452000000
S	   3.4330600000	  14.1350000000	  61.1141877989
S	   4.4767500000	  13.1833000000	  62.6860977989
S	   3.6192900000	  13.8729000000	  64.5109477989
S	   4.2717300000	  15.8718000000	  60.2584677989
S	   5.5006300000	  15.3634000000	  58.7131000000
