39

Li	  38.5938000000	  49.3203000000	  10.3252000000
O	  39.2459000000	  51.5961000000	  13.6911000000
O	  38.4972000000	  50.4873000000	  11.9454000000
C	  38.6478000000	  52.4993000000	  12.8267000000
C	  37.9060000000	  51.7982000000	  11.7678000000
C	  38.8577000000	  50.3473000000	  13.2170000000
H	  37.8920000000	  53.0780000000	  13.3686000000
H	  39.4728000000	  53.1135000000	  12.4276000000
H	  36.8487000000	  51.7094000000	  11.9234000000
H	  38.0197000000	  52.1415000000	  10.6895000000
H	  39.6982000000	  49.7572000000	  13.3831000000
H	  38.0349000000	  49.9420000000	  13.7951000000
O	  37.8596000000	  47.5973000000	  10.8749000000
O	  37.3806000000	  46.1406000000	  12.4202000000
C	  38.0603000000	  46.3859000000	  10.1778000000
C	  37.6559000000	  45.3834000000	  11.2779000000
C	  37.0420000000	  47.3374000000	  11.9436000000
H	  37.3124000000	  46.3865000000	   9.3230500000
H	  38.9581000000	  46.1757000000	   9.6753300000
H	  36.6541000000	  45.1290000000	  11.0706000000
H	  38.3906000000	  44.5468000000	  11.3966000000
H	  37.1336000000	  48.1123000000	  12.6839000000
H	  35.9831000000	  47.3127000000	  11.5007000000
S	  28.1192000000	  48.5842000000	   9.1804000000
S	  30.0694000000	  47.9846000000	  10.0520000000
S	  30.5677000000	  48.9747000000	  11.8606000000
S	  34.4844000000	  48.8535000000	   9.3539600000
S	  35.7771000000	  50.3755000000	   8.3084500000
S	  37.9011000000	  49.9107000000	   8.3765300000
S	  34.0343000000	  49.5651000000	  11.3477000000
S	  32.0650000000	  50.4647000000	  11.3808000000
S	  40.6547000000	  49.1482000000	  10.0358000000
S	  41.0437000000	  47.8115000000	  11.6980000000
S	  43.1565000000	  47.5898000000	  12.0725000000
S	  45.5737000000	  43.1419000000	  13.1945000000
S	  45.6147000000	  41.5130000000	  11.9201000000
S	  44.9984000000	  39.7840000000	  12.8764000000
S	  43.7642000000	  44.1485000000	  13.0550000000
S	  43.7886000000	  45.6063000000	  11.5302000000
