45

Li	  16.3473000000	  37.3934000000	  33.7061000000
O	  16.0758000000	  38.7076000000	  34.9328000000
O	  17.2454000000	  39.7826000000	  36.4633000000
C	  15.8873000000	  40.0909000000	  34.5957000000
C	  16.9375000000	  40.7349000000	  35.4250000000
C	  16.3220000000	  38.7656000000	  36.3124000000
H	  16.0711000000	  40.2468000000	  33.5174000000
H	  14.8266000000	  40.2749000000	  34.8966000000
H	  17.8115000000	  41.1739000000	  34.8423000000
H	  16.4385000000	  41.5330000000	  35.8973000000
H	  15.4399000000	  38.8827000000	  36.9214000000
H	  16.7755000000	  37.8423000000	  36.7012000000
F	  18.6186000000	  37.2859000000	  31.4131000000
F	  17.7431000000	  39.0786000000	  32.3088000000
F	  20.0861000000	  39.6387000000	  30.7440000000
F	  20.3180000000	  40.0457000000	  32.7812000000
O	  18.0043000000	  36.6114000000	  33.9377000000
C	  18.8419000000	  38.2815000000	  32.2679000000
C	  18.9948000000	  37.6310000000	  33.6185000000
C	  20.1306000000	  39.0615000000	  31.9292000000
C	  18.5163000000	  35.7594000000	  34.9220000000
C	  17.4455000000	  34.7431000000	  35.2795000000
H	  19.9918000000	  37.1730000000	  33.6305000000
H	  19.0945000000	  38.4561000000	  34.3262000000
H	  21.0326000000	  38.4728000000	  31.7170000000
H	  19.4221000000	  35.2753000000	  34.5766000000
H	  18.8601000000	  36.2244000000	  35.8693000000
H	  17.7911000000	  33.9298000000	  35.9679000000
H	  16.5114000000	  35.2771000000	  35.5841000000
H	  17.1735000000	  34.2131000000	  34.3385000000
N	  14.1668000000	  35.9984000000	  31.0424000000
S	  14.3504000000	  35.0063000000	  32.2103000000
O	  15.0716000000	  35.5272000000	  33.3475000000
O	  13.1402000000	  34.2100000000	  32.4775000000
C	  15.5933000000	  33.7990000000	  31.5125000000
F	  16.7233000000	  34.4510000000	  31.0718000000
F	  15.0831000000	  33.0737000000	  30.5491000000
F	  16.0683000000	  32.9945000000	  32.5029000000
S	  14.2239000000	  37.4756000000	  31.0762000000
O	  15.0669000000	  38.0199000000	  32.0729000000
O	  12.9368000000	  38.0660000000	  30.8775000000
C	  15.1526000000	  37.8200000000	  29.5920000000
F	  14.5475000000	  37.4753000000	  28.4378000000
F	  15.4994000000	  39.0264000000	  29.4780000000
F	  16.2951000000	  37.1266000000	  29.6259000000
