27

Li	   0.8692610000	  56.1540000000	  15.5162000000
O	   1.5181800000	  54.8584000000	  19.1934000000
O	   1.1905900000	  55.1702000000	  17.0309000000
C	   2.8415300000	  54.8992000000	  18.6145000000
C	   2.3945100000	  54.4965000000	  17.2224000000
C	   0.5520560921	  55.1083000000	  18.2188000000
H	   3.1479400000	  55.9196000000	  18.6564000000
H	   3.4444600000	  54.2266000000	  19.2096000000
H	   3.1913200000	  54.6988000000	  16.4870000000
H	   2.2374200000	  53.4075000000	  17.1389000000
H	  -0.0614439079	  54.1190000000	  18.2709000000
H	  -0.0192439079	  56.0012000000	  18.5287000000
N	  -0.7845439079	  58.9379000000	  15.8774000000
S	  -1.5738439079	  57.7183000000	  15.2222000000
O	  -1.7819439079	  57.9053000000	  13.7742000000
O	  -1.1541439079	  56.3797000000	  15.6649000000
C	  -3.1795439079	  57.8894000000	  15.9581000000
F	  -3.2231439079	  57.5716000000	  17.2676000000
F	  -4.0752439079	  57.0938000000	  15.3071000000
F	  -3.6160439079	  59.1272000000	  15.7708000000
S	   0.5097560921	  58.8302000000	  16.7516000000
O	   1.5348000000	  57.8521000000	  16.3179000000
O	   0.1686560921	  58.9300000000	  18.1190000000
C	   1.2551100000	  60.3939151103	  16.3217000000
F	   1.5994200000	  60.4544851103	  15.0584000000
F	   0.4708560921	  61.4750751103	  16.5868000000
F	   2.4026500000	  60.6038151103	  16.9637000000
