64

Li	  50.0734000000	  49.9915000000	   3.8349700000
F	  47.9753000000	  50.9692000000	   5.7446800000
F	  47.5719000000	  48.9325000000	   5.1319200000
F	  46.5103000000	  48.5421000000	   7.6300600000
F	  47.1616000000	  50.5244000000	   8.2928500000
O	  50.3172000000	  49.3883000000	   5.6159400000
C	  47.9300000000	  49.7065000000	   6.1469500000
C	  49.3975000000	  49.2468000000	   6.6610800000
C	  46.8606000000	  49.7411000000	   7.2360600000
C	  51.5520000000	  48.8498000000	   6.0269100000
C	  52.5778000000	  48.9892000000	   4.8994900000
H	  49.6848000000	  49.8483000000	   7.4623600000
H	  49.1398000000	  48.2444000000	   7.0157400000
H	  45.9331000000	  50.1951000000	   6.8192700000
H	  51.9426000000	  49.3847000000	   6.9111500000
H	  51.4665000000	  47.8241000000	   6.3690300000
H	  52.7046000000	  50.0442000000	   4.6500100000
H	  53.5193000000	  48.8000000000	   5.3820400000
H	  52.5756000000	  48.3742000000	   3.9836300000
N	  48.9224000000	  53.5042000000	   3.2253900000
S	  48.7802000000	  54.2066000000	   1.8116200000
O	  49.8400000000	  55.1555000000	   1.4589000000
O	  48.2117000000	  53.3338000000	   0.7963722011
C	  47.4073000000	  55.3412000000	   2.1722300000
F	  46.3633000000	  54.7527000000	   2.6570200000
F	  46.9971000000	  55.9742000000	   1.0875500000
F	  47.6849000000	  56.2843000000	   3.0353400000
S	  50.2548000000	  53.3107000000	   4.0748100000
O	  51.4429000000	  53.9937000000	   3.7426200000
O	  50.3987000000	  51.8852000000	   4.3447600000
C	  49.8193000000	  54.0417000000	   5.6733400000
F	  50.7696000000	  53.8659000000	   6.6217700000
F	  49.6137000000	  55.3467000000	   5.5104800000
F	  48.6853000000	  53.6018000000	   6.1707600000
N	  48.3841000000	  48.2145000000	   1.0862000000
S	  49.2144000000	  47.2745000000	   2.0968400000
O	  49.9896000000	  47.9788000000	   3.0694200000
O	  48.4839000000	  46.1021000000	   2.4449000000
C	  50.5187000000	  46.6103000000	   0.9636540000
F	  51.1917000000	  47.5832000000	   0.3729722011
F	  49.9841000000	  45.8702000000	  -0.0803277989
F	  51.4515000000	  45.8471000000	   1.5512500000
S	  47.7027000000	  49.5133000000	   1.4034300000
O	  47.7489000000	  50.4900000000	   0.2892722011
O	  47.8068000000	  50.0019000000	   2.7650100000
C	  45.9344000000	  49.0347000000	   1.4796700000
F	  45.6552000000	  47.9540000000	   2.2501000000
F	  45.2266000000	  50.0035000000	   2.0512500000
F	  45.3916000000	  48.7410000000	   0.2547722011
N	  51.2074000000	  50.7846000000	  -0.3303277989
S	  50.8890000000	  51.9578000000	  -1.3780277989
O	  49.4502000000	  52.1132000000	  -1.5538277989
O	  51.6757000000	  53.1338000000	  -1.4706277989
C	  51.2822000000	  51.0653000000	  -2.9589277989
F	  50.8113000000	  51.5517000000	  -4.1197277989
F	  50.7038000000	  49.8951000000	  -2.9425277989
F	  52.5398000000	  50.7172000000	  -3.0607277989
S	  51.6030000000	  51.1288000000	   1.1417400000
O	  50.6562000000	  50.5205000000	   2.0263700000
O	  51.9406000000	  52.4654000000	   1.4011000000
C	  53.1834000000	  50.2469000000	   1.4161100000
F	  53.0324000000	  48.8827000000	   1.3034400000
F	  54.1149000000	  50.6407000000	   0.5756722011
F	  53.7007000000	  50.5014000000	   2.6042900000
