50

Li	  34.4023000000	  51.6026000000	  46.2621000000
O	  32.5527000000	  48.7575000000	  48.3762000000
O	  33.2502000000	  50.0086000000	  46.5819000000
C	  33.3780000000	  47.9642000000	  47.5154000000
C	  34.2169000000	  49.0324000000	  46.7249000000
C	  32.4282000000	  49.8844000000	  47.7263000000
H	  34.1475000000	  47.4544000000	  48.1360000000
H	  32.7985000000	  47.3369000000	  46.8447000000
H	  35.0674000000	  49.3586000000	  47.2180000000
H	  34.5995000000	  48.5744000000	  45.7627000000
H	  31.3892000000	  50.0043000000	  47.3495000000
H	  32.6248000000	  50.6983000000	  48.3778000000
N	  34.3258000000	  52.8345000000	  50.4695000000
S	  34.4898000000	  53.3520000000	  49.0482000000
O	  34.4946000000	  52.2232000000	  48.1574000000
O	  33.7289000000	  54.4973000000	  48.7069000000
C	  36.1927000000	  53.9523000000	  49.0442000000
F	  36.3027000000	  54.9287000000	  49.8459000000
F	  36.6671000000	  54.4125000000	  47.9290000000
F	  37.0309000000	  53.0300000000	  49.5291000000
S	  33.0686000000	  53.1484000000	  51.3409000000
O	  31.8860000000	  53.5800000000	  50.5867000000
O	  33.3009000000	  53.8215000000	  52.5902000000
C	  32.6972000000	  51.5633000000	  52.0673000000
F	  32.3636000000	  50.6853000000	  51.1949000000
F	  33.7451000000	  51.0400000000	  52.7280000000
F	  31.6997000000	  51.7090000000	  52.8898000000
N	  30.8611000000	  54.7090000000	  45.8910000000
S	  31.1094000000	  56.0315000000	  46.6269000000
O	  30.6572000000	  56.0722000000	  48.0031000000
O	  32.3473000000	  56.6202000000	  46.2842000000
C	  29.8246000000	  57.1867000000	  45.8785000000
F	  29.8657000000	  57.1066000000	  44.6069000000
F	  30.0984000000	  58.4531000000	  46.0874000000
F	  28.5366000000	  56.9871000000	  46.1823000000
S	  31.1163000000	  53.3072000000	  46.4902000000
O	  30.8277000000	  53.2213000000	  47.8482000000
O	  32.3552000000	  52.6857000000	  46.0864000000
C	  29.8327000000	  52.3660000000	  45.5590000000
F	  29.6529000000	  52.7629000000	  44.2588000000
F	  30.1030000000	  51.0430000000	  45.5284000000
F	  28.6618000000	  52.5343000000	  46.1737000000
S	  34.9710000000	  50.9608000000	  44.2252000000
S	  36.0237000000	  52.5063000000	  45.2393000000
S	  37.6242000000	  51.6751000000	  46.3579000000
S	  42.1334000000	  54.1199000000	  47.6548000000
S	  42.5217000000	  54.5482000000	  49.6614000000
S	  43.7626000000	  56.2615000000	  50.1098000000
S	  40.0633000000	  53.8726000000	  47.2118000000
S	  39.5847000000	  52.1892000000	  45.9834000000
