20

Li	  56.3629000000	  23.4323000000	  24.0006000000
O	  53.8817000000	  21.0641000000	  25.9278000000
O	  54.9426000000	  22.9121000000	  24.8784000000
C	  52.9176000000	  21.9543000000	  25.4864000000
C	  53.6535000000	  22.6374000000	  24.3600000000
C	  55.0978000000	  21.7319000000	  25.6451000000
H	  52.0274000000	  21.4654000000	  24.9930000000
H	  52.5254000000	  22.6315000000	  26.2758000000
H	  53.5711000000	  22.0350000000	  23.4021000000
H	  53.1371000000	  23.5769000000	  24.1158000000
H	  55.5949000000	  22.0089000000	  26.6055000000
H	  55.8147000000	  20.9952000000	  25.1596000000
S	  58.2379000000	  25.0426000000	  25.3273000000
S	  58.0700000000	  23.3031000000	  26.4638000000
S	  59.6273339079	  21.9562000000	  26.0271000000
S	  57.0997000000	  22.0940000000	  21.9465000000
S	  57.2231000000	  24.2199000000	  21.9098000000
S	  55.7028000000	  25.1172000000	  23.0289000000
S	  58.9354000000	  21.2809000000	  22.6396000000
S	  58.8194000000	  20.6090000000	  24.6925000000
