56

Li	  14.5438000000	  52.3840000000	  43.0122000000
O	  13.1435000000	  54.3963000000	  46.4428000000
O	  14.1982000000	  53.0533000000	  44.9642000000
C	  12.1444000000	  53.5882000000	  45.9468000000
C	  12.8111000000	  52.7985000000	  44.8405000000
C	  14.3030000000	  53.6356000000	  46.1984000000
H	  11.7773000000	  52.9546000000	  46.8329000000
H	  11.3234000000	  54.0818000000	  45.5564000000
H	  12.5424000000	  51.7467000000	  45.0101000000
H	  12.5559000000	  52.9853000000	  43.8606000000
H	  15.1080000000	  54.3083000000	  46.1255000000
H	  14.4580000000	  53.0325000000	  47.0877000000
O	  12.5567000000	  52.3022000000	  39.5113000000
O	  13.4909000000	  52.6989000000	  41.4740000000
C	  12.0218000000	  53.5556000000	  39.9029000000
C	  13.0287000000	  53.9710000000	  40.9730000000
C	  13.6235000000	  52.0045000000	  40.3188000000
H	  11.8863000000	  54.2704000000	  39.1137000000
H	  11.1280000000	  53.2897000000	  40.3725000000
H	  13.8964000000	  54.6281000000	  40.6682000000
H	  12.4913000000	  54.5598000000	  41.7020000000
H	  13.6641000000	  50.9217000000	  40.4620000000
H	  14.4666000000	  52.3876000000	  39.6570000000
F	  15.1835000000	  54.8786000000	  43.1733000000
F	  16.9960000000	  54.9305000000	  44.1673000000
F	  16.4315000000	  56.2200000000	  41.0139000000
F	  16.0635000000	  57.1909000000	  42.9409000000
O	  16.4207000000	  52.5687000000	  42.9971000000
C	  16.4677000000	  54.9798000000	  43.0292000000
C	  16.8526000000	  53.6982000000	  42.2358000000
C	  16.7966000000	  56.2910000000	  42.3113000000
C	  17.5056000000	  51.8673000000	  43.5305000000
C	  17.0097000000	  50.5550000000	  44.0912000000
H	  16.4004000000	  53.6254000000	  41.2291000000
H	  17.8730000000	  53.5985000000	  41.9739000000
H	  17.8139000000	  56.6605000000	  42.3058000000
H	  18.2253000000	  51.6254000000	  42.7364000000
H	  18.1151000000	  52.5227000000	  44.2630000000
H	  16.2554000000	  50.6361000000	  44.8212000000
H	  16.6085000000	  49.9341000000	  43.3195000000
H	  17.7811000000	  50.0250000000	  44.5809000000
N	  14.4028000000	  48.1121000000	  41.7240000000
S	  13.5732000000	  49.0041000000	  42.6695000000
O	  14.0519000000	  50.3549000000	  42.7211000000
O	  12.1740000000	  48.7585000000	  42.3284000000
C	  13.9353000000	  48.2547000000	  44.2972000000
F	  13.1494000000	  47.2411000000	  44.5110000000
F	  13.6567000000	  49.1384000000	  45.2212000000
F	  15.1662000000	  47.8101000000	  44.4217000000
S	  15.7774000000	  48.3510000000	  41.0271000000
O	  16.7595000000	  47.3283000000	  41.3531000000
O	  16.2746000000	  49.6727000000	  41.0224000000
C	  15.3296000000	  48.1333000000	  39.1913000000
F	  16.2474000000	  48.4844000000	  38.2745000000
F	  15.0833000000	  46.8237000000	  38.9543000000
F	  14.2028000000	  48.8462000000	  38.8371000000
