39

Li	  50.7032000000	  45.0093000000	  14.0246000000
O	  48.8781000000	  46.2876000000	  10.6239000000
O	  50.0117000000	  44.9046000000	  12.1403000000
C	  50.1004000000	  46.8097000000	  10.8571000000
C	  50.9716000000	  45.7196000000	  11.4834000000
C	  48.9365000000	  45.0443000000	  11.3031000000
H	  50.5583000000	  47.0502000000	   9.9538000000
H	  50.0456000000	  47.7112000000	  11.5085000000
H	  51.5747000000	  45.1738000000	  10.7220000000
H	  51.7372000000	  46.1422000000	  12.1190000000
H	  48.0094000000	  44.9877000000	  11.8570000000
H	  49.0732000000	  44.3018000000	  10.5563000000
O	  50.0869000000	  46.9733000000	  14.3205000000
O	  48.4975000000	  48.4049000000	  15.1731000000
C	  50.7620000000	  47.9872000000	  15.0128000000
C	  49.6749000000	  48.4327000000	  16.0412000000
C	  48.7271000000	  47.2366000000	  14.4431000000
H	  51.7162000000	  47.5989000000	  15.4800000000
H	  50.9125000000	  48.8829000000	  14.4074000000
H	  49.6722000000	  47.7825000000	  16.9469000000
H	  49.7805000000	  49.5115000000	  16.3536000000
H	  48.3114000000	  47.3717000000	  13.4518000000
H	  48.2398000000	  46.3725000000	  14.8548000000
S	  52.7927000000	  45.1363000000	  14.4358000000
S	  54.3141000000	  46.6664000000	  14.7044000000
S	  54.2174000000	  48.2793000000	  13.2882000000
S	  56.3106000000	  52.3392000000	  12.5621000000
S	  57.5735000000	  53.0573000000	  11.1299000000
S	  58.9688000000	  54.5718000000	  11.5698000000
S	  56.9587000000	  50.4225000000	  13.3398000000
S	  55.9861000000	  48.8025000000	  12.4418000000
S	  45.1200000000	  35.9232000000	  18.3210000000
S	  46.1027000000	  37.7846000000	  17.8015000000
S	  45.8540000000	  38.3655000000	  15.8004000000
S	  49.9384000000	  40.5717000000	  15.0077000000
S	  50.4837000000	  42.4754000000	  14.2034000000
S	  49.4256000000	  43.9249000000	  15.2951000000
S	  48.4479000000	  39.7745000000	  13.9142000000
S	  47.6279000000	  37.9986000000	  14.7652000000
