20

Li	   6.8256500000	  25.5767000000	  24.4724000000
O	   8.2758800000	  25.6959000000	  26.1159000000
O	   9.1742100000	  27.6230000000	  26.8729000000
C	   9.6830000000	  25.5267000000	  26.2206000000
C	  10.2238000000	  26.9398000000	  26.2267000000
C	   8.2016700000	  26.6667000000	  27.0595000000
H	   9.9384300000	  25.0571000000	  27.1586000000
H	  10.0912000000	  24.8878000000	  25.4498000000
H	  11.2453000000	  27.2039000000	  26.6525000000
H	  10.2496000000	  27.3345000000	  25.1908000000
H	   7.2104600000	  27.1582000000	  26.9885000000
H	   8.2538700000	  26.2378000000	  28.0370000000
S	   5.8824300000	  23.8314000000	  24.4522000000
S	   6.9864900000	  22.4012000000	  23.2631000000
S	   9.0775300000	  22.7146000000	  23.3888000000
S	   8.9353400000	  26.9796000000	  21.5632000000
S	   7.8275200000	  27.3865000000	  23.3571000000
S	   5.8650100000	  26.8306000000	  23.0313000000
S	  10.5806000000	  25.6050000000	  21.9342000000
S	   9.9759200000	  23.5371000000	  21.6936000000
