42

Li	   8.0417200000	  11.3658000000	  38.5314000000
O	   9.8461400000	  13.5802000000	  41.5057000000
O	   9.0961200000	  12.0322000000	  40.0168000000
C	  10.8492000000	  12.6140000000	  41.3241000000
C	  10.1250000000	  11.4105000000	  40.7335000000
C	   8.9618000000	  13.3521000000	  40.4634000000
H	  11.5804000000	  12.8782000000	  40.5429000000
H	  11.4598000000	  12.3933000000	  42.2349000000
H	  10.7713000000	  10.9271000000	  39.9726000000
H	   9.7502100000	  10.7354000000	  41.5155000000
H	   7.9521700000	  13.7054000000	  40.7090000000
H	   9.3181100000	  14.0705000000	  39.6889000000
O	   5.6600100000	  12.6050000000	  41.2148000000
O	   6.5385600000	  11.4139000000	  39.4703000000
C	   5.5719700000	  11.2577000000	  41.5926000000
C	   6.2615100000	  10.5025000000	  40.4471000000
C	   5.6569800000	  12.4592000000	  39.8167000000
H	   6.0008400000	  11.0110000000	  42.5297000000
H	   4.5408800000	  11.0448000000	  41.7227000000
H	   7.1706600000	  10.0465000000	  40.7377000000
H	   5.5598600000	   9.7090900000	  40.2554000000
H	   4.6056700000	  12.1289000000	  39.4795000000
H	   5.8288900000	  13.3151000000	  39.2259000000
O	  10.5072000000	  13.2054000000	  35.8186000000
O	   8.8945700000	  12.5655000000	  37.2820000000
C	   9.2368900000	  13.6032000000	  35.3094000000
C	   8.2751100000	  13.5505000000	  36.4622000000
C	  10.2539000000	  12.3828000000	  36.8678000000
H	   9.2676900000	  14.6307000000	  34.8813000000
H	   8.9618100000	  12.9088000000	  34.5440000000
H	   8.1598300000	  14.3650000000	  37.0783000000
H	   7.2412600000	  13.2228000000	  36.3113000000
H	  10.4411000000	  11.3580000000	  36.5125000000
H	  10.9182000000	  12.5238000000	  37.7700000000
S	  12.9842000000	   5.6347800000	  44.2499000000
S	  12.9084000000	   4.0458200000	  42.9485000000
S	  11.1285000000	   4.0995200000	  41.7388000000
S	   8.6749100000	   7.7999500000	  39.5173000000
S	   8.9163500000	   9.3100500000	  38.1529000000
S	   7.3296900000	   9.8250100000	  36.9296000000
S	  10.4752000000	   7.3059700000	  40.4687000000
S	  11.2849000000	   5.3154300000	  40.0096000000
