53

Li	  21.7826000000	  39.9972000000	  13.9819000000
O	  20.8224000000	  42.6565000000	  17.0508000000
O	  21.6869000000	  41.2613000000	  15.5520000000
C	  22.0977000000	  42.3740000000	  17.5365000000
C	  22.7482000000	  41.6744000000	  16.3345000000
C	  20.5148000000	  41.5476000000	  16.2977000000
H	  22.6185000000	  43.2635000000	  17.8748000000
H	  22.0463000000	  41.6558000000	  18.3043000000
H	  23.4065000000	  42.4673000000	  15.8632000000
H	  23.3326000000	  40.8911000000	  16.7794000000
H	  20.2311000000	  40.7305000000	  16.8822000000
H	  19.6582000000	  41.8971000000	  15.7393000000
O	  20.9662000000	  39.5210000000	  12.4201000000
O	  19.9645000000	  41.2213000000	  13.2126000000
C	  19.7362000000	  39.0207000000	  12.8734000000
C	  18.9542000000	  40.2359000000	  13.2913000000
C	  20.6825000000	  40.8701000000	  12.1416000000
H	  19.2069000000	  38.4224000000	  12.0778000000
H	  19.9514000000	  38.2702000000	  13.6325000000
H	  18.1301000000	  40.5463000000	  12.6960000000
H	  18.4748000000	  40.0676000000	  14.2766000000
H	  21.5092000000	  41.5452000000	  12.0451000000
H	  20.1500000000	  40.8471000000	  11.1998000000
N	  19.8106000000	  37.2823000000	  16.4687000000
S	  18.8849000000	  36.0674000000	  16.7324000000
O	  19.3122000000	  34.8505000000	  16.1498000000
O	  18.3245000000	  36.0221000000	  18.0659000000
C	  17.5643000000	  36.6355000000	  15.6366000000
F	  16.9723000000	  37.6849000000	  16.2034000000
F	  16.7604000000	  35.6636000000	  15.2496000000
F	  18.0059000000	  37.0954000000	  14.5018000000
S	  21.3383000000	  37.3105000000	  16.0597000000
O	  21.6945000000	  38.4358000000	  15.2716000000
O	  21.7653000000	  35.9912000000	  15.5649000000
C	  22.2701000000	  37.5721000000	  17.6490000000
F	  22.0342000000	  36.6877000000	  18.6017000000
F	  23.5697000000	  37.5844000000	  17.4356000000
F	  22.0127000000	  38.7484000000	  18.1954000000
N	  23.9619000000	  37.8905000000	  13.3393000000
S	  23.8095000000	  36.6160000000	  12.4206000000
O	  22.4320000000	  36.0979000000	  12.4751000000
O	  24.5203000000	  36.6698000000	  11.1494000000
C	  24.7241000000	  35.4423000000	  13.3890000000
F	  24.0104000000	  35.0086000000	  14.3997000000
F	  25.8828000000	  35.9884000000	  13.8798000000
F	  24.9979000000	  34.4736000000	  12.5702000000
S	  24.4639000000	  39.3069000000	  13.0295000000
O	  23.7748000000	  40.4240000000	  13.6904000000
O	  24.7281000000	  39.4082000000	  11.6174000000
C	  26.1018000000	  39.3457000000	  13.9577000000
F	  25.9456000000	  39.1128000000	  15.2351000000
F	  27.0198000000	  38.5608000000	  13.4266000000
F	  26.6465000000	  40.5253000000	  13.9685000000
