61

Li	  44.9913000000	  50.1141000000	  19.0941000000
O	  44.7331000000	  49.9684000000	  15.0913000000
O	  44.4690000000	  49.7583000000	  17.3120000000
C	  43.6454000000	  49.0617000000	  15.2946000000
C	  43.4893000000	  48.9482000000	  16.7604000000
C	  44.8452000000	  50.6469000000	  16.3406000000
H	  42.8426000000	  49.4332000000	  14.7727000000
H	  43.9306000000	  48.0872000000	  14.7784000000
H	  42.5712000000	  49.3488000000	  17.0641000000
H	  43.6405000000	  47.9280000000	  17.1041000000
H	  45.8025000000	  51.0557000000	  16.4471000000
H	  44.2099000000	  51.4939000000	  16.4207000000
O	  46.5331000000	  46.4201000000	  19.9682000000
O	  45.1520000000	  47.9605000000	  19.1816000000
C	  45.2483000000	  45.8523000000	  20.1596000000
C	  44.3016000000	  46.9638000000	  19.7287000000
C	  46.3876000000	  47.3535000000	  18.9935000000
H	  45.0596000000	  45.0407000000	  19.4689000000
H	  45.0811000000	  45.4933000000	  21.1556000000
H	  43.6031000000	  46.7205000000	  18.9601000000
H	  43.7369000000	  47.3040000000	  20.6318000000
H	  47.1759000000	  48.1474000000	  18.8897000000
H	  46.4314000000	  46.8935000000	  18.0300000000
N	  46.3069000000	  50.4438000000	  23.3962000000
S	  45.7843000000	  49.2574000000	  22.5874000000
O	  45.2372000000	  49.6579000000	  21.2999000000
O	  46.5790000000	  48.0367000000	  22.7590000000
C	  44.2644000000	  48.8070000000	  23.5071000000
F	  44.5558000000	  48.2002000000	  24.6774000000
F	  43.4266000000	  48.0017000000	  22.8760000000
F	  43.6009000000	  49.9280000000	  23.7675000000
S	  47.8048000000	  50.9043000000	  23.4432000000
O	  47.9714000000	  52.3303000000	  23.6026000000
O	  48.5858000000	  50.3663000000	  22.3688000000
C	  48.3959000000	  50.1579000000	  25.0081000000
F	  49.5620000000	  50.6368000000	  25.2597000000
F	  47.5857000000	  50.3905000000	  25.9945000000
F	  48.4925000000	  48.8556000000	  24.9876000000
N	  47.0920000000	  53.1647000000	  17.9347000000
S	  45.8849000000	  54.1289000000	  18.0356000000
O	  44.9060000000	  54.0298000000	  16.9300000000
O	  45.3569000000	  54.2846000000	  19.3809000000
C	  46.7383000000	  55.7403000000	  17.7011000000
F	  47.5751000000	  55.6801000000	  16.6796000000
F	  47.4851000000	  56.1374000000	  18.7715000000
F	  45.9034000000	  56.7498000000	  17.4771000000
S	  47.5776000000	  52.1691000000	  19.0814000000
O	  46.7919000000	  50.9910000000	  18.9674000000
O	  47.6923000000	  52.7282000000	  20.4455000000
C	  49.2795000000	  51.7228000000	  18.6411000000
F	  49.6688000000	  50.7397000000	  19.3978000000
F	  49.4056000000	  51.3171000000	  17.3764000000
F	  50.1073000000	  52.7851000000	  18.8382000000
S	  35.5890000000	  44.1086000000	  19.7203000000
S	  37.6361000000	  44.5809000000	  19.7627000000
S	  37.8416000000	  46.4555000000	  20.6215000000
S	  41.4471000000	  49.0886000000	  19.9194000000
S	  41.7131000000	  51.1585000000	  19.4850000000
S	  43.6569000000	  51.7744000000	  19.8686000000
S	  40.2467000000	  47.9867000000	  18.5877000000
S	  38.2722000000	  47.7936000000	  19.1796000000
