49

Li	  23.3949000000	  32.2400000000	  37.4823000000
O	  23.0398000000	  32.6601000000	  35.7231000000
O	  22.3096000000	  33.5044000000	  33.7257000000
C	  23.3540000000	  31.7239000000	  34.7038000000
C	  22.5104000000	  32.1367000000	  33.5524000000
C	  22.2991000000	  33.6560000000	  35.1088000000
H	  24.4558000000	  31.6924000000	  34.4741000000
H	  23.1238000000	  30.7310000000	  35.1236000000
H	  22.8986000000	  31.8133000000	  32.6366000000
H	  21.5487000000	  31.6765000000	  33.5824000000
H	  21.2706000000	  33.3960000000	  35.3357000000
H	  22.5658000000	  34.6433000000	  35.3662000000
O	  21.5399000000	  33.3337000000	  40.5649000000
O	  22.5731000000	  33.4297000000	  38.5905000000
C	  20.5732000000	  33.9528000000	  39.7821000000
C	  21.2095000000	  33.7706000000	  38.4282000000
C	  22.6751000000	  33.6912000000	  39.9505000000
H	  19.6178000000	  33.4600000000	  39.9935000000
H	  20.3890000000	  34.9368000000	  40.0773000000
H	  20.7430000000	  32.9603000000	  38.0124000000
H	  20.9663000000	  34.7028000000	  37.7790000000
H	  22.8654000000	  34.7205000000	  40.0462000000
H	  23.4539000000	  33.1124000000	  40.4966000000
O	  26.6877000000	  30.3920000000	  38.4532000000
O	  24.9809000000	  31.8200000000	  37.9951000000
C	  26.4349000000	  31.1403000000	  39.5760000000
C	  25.9074000000	  32.3870000000	  38.8920000000
C	  25.6956000000	  30.7067000000	  37.5070000000
H	  25.7238000000	  30.6196000000	  40.2798000000
H	  27.4199000000	  31.2297000000	  39.9874000000
H	  25.4764000000	  33.1737000000	  39.5693000000
H	  26.7036000000	  32.8786000000	  38.3231000000
H	  26.1610000000	  30.8929000000	  36.5057000000
H	  24.9373000000	  29.9608000000	  37.3505000000
N	  20.1524000000	  30.2363000000	  39.2189000000
S	  18.7307000000	  29.8999000000	  38.7295000000
O	  18.0806000000	  31.0582000000	  38.1811000000
O	  18.6003000000	  28.6233000000	  38.0387000000
C	  17.8486000000	  29.5092000000	  40.3452000000
F	  18.0516000000	  30.5244000000	  41.1699000000
F	  18.4079000000	  28.4561000000	  40.9813000000
F	  16.5462000000	  29.3534000000	  40.2640000000
S	  21.4976000000	  29.6627000000	  38.6949000000
O	  22.3718000000	  30.7195000000	  38.0860000000
O	  21.4519000000	  28.3873000000	  37.9737000000
C	  22.3272000000	  29.1565000000	  40.2563000000
F	  22.3438000000	  30.0979000000	  41.1976000000
F	  21.8319000000	  28.0710000000	  40.7415000000
F	  23.5836000000	  28.8614000000	  40.0851000000
