72

Li	  48.9342000000	  39.2593000000	  22.3532000000
O	  49.9148000000	  40.0773000000	  23.7295000000
O	  51.3333000000	  40.5845000000	  25.4582000000
C	  51.1954000000	  40.2232000000	  23.1775000000
C	  52.0494000000	  40.8106000000	  24.2923000000
C	  50.0073000000	  40.6579000000	  25.0153000000
H	  51.5260000000	  39.2705000000	  22.7965000000
H	  51.3009000000	  40.8826000000	  22.2393000000
H	  53.0457000000	  40.4151000000	  24.2535000000
H	  52.0626000000	  41.9067000000	  24.0906000000
H	  49.7295000000	  41.7333000000	  25.1094000000
H	  49.3783000000	  40.1420000000	  25.7089000000
N	  47.3803000000	  43.1931000000	  22.3460000000
S	  48.7276000000	  42.5984000000	  21.8763000000
O	  49.7792000000	  42.8916000000	  22.8085000000
O	  48.5923000000	  41.2087000000	  21.4095000000
C	  49.0334000000	  43.5412000000	  20.3122000000
F	  50.2640000000	  43.2222000000	  19.7359000000
F	  48.9955000000	  44.8116000000	  20.6371000000
F	  48.1019000000	  43.3483000000	  19.4529000000
S	  46.3624000000	  42.3606000000	  23.3089000000
O	  46.7975000000	  41.1362000000	  23.8573000000
O	  45.0568000000	  42.4722000000	  22.8030000000
C	  46.2634000000	  43.4214000000	  24.8266000000
F	  45.9369000000	  44.6653000000	  24.5072000000
F	  45.2832000000	  42.9887000000	  25.6172000000
F	  47.4156000000	  43.3198000000	  25.5576000000
N	  45.9249000000	  37.0072000000	  20.1817000000
S	  46.2295000000	  35.5336000000	  19.7246000000
O	  46.7408000000	  35.5264000000	  18.3983000000
O	  46.8524000000	  34.6436000000	  20.7430000000
C	  44.5548000000	  34.8104000000	  19.5024000000
F	  43.9206000000	  35.4522000000	  18.5177000000
F	  43.7715000000	  35.0670000000	  20.5163000000
F	  44.4728000000	  33.5278000000	  19.2967000000
S	  46.0716000000	  37.5988000000	  21.5456000000
O	  47.0940000000	  38.5697000000	  21.7550000000
O	  45.6424000000	  36.8260000000	  22.6635000000
C	  44.5715000000	  38.6246000000	  21.4267000000
F	  44.5663000000	  39.5164000000	  20.5190000000
F	  43.4645000000	  37.9163000000	  21.1181000000
F	  44.2731000000	  39.2748000000	  22.5442000000
N	  50.9860000000	  37.1599000000	  19.3973000000
S	  50.9566000000	  35.7398000000	  18.7667000000
O	  50.4305000000	  34.7052000000	  19.6608000000
O	  50.5472000000	  35.7626000000	  17.3482000000
C	  52.7290000000	  35.4020000000	  18.6949000000
F	  53.1321000000	  35.0946000000	  19.8928000000
F	  53.3248000000	  36.5363000000	  18.4180000000
F	  53.1101000000	  34.4530000000	  17.8743000000
S	  49.8557000000	  38.2680000000	  19.3687000000
O	  49.6315000000	  38.7467000000	  20.7113000000
O	  48.7205000000	  37.8985000000	  18.5271000000
C	  50.5418000000	  39.6554000000	  18.4347000000
F	  51.8352000000	  39.8646000000	  18.6602000000
F	  50.4040000000	  39.4578000000	  17.1411000000
F	  49.9506000000	  40.8186000000	  18.7955000000
N	  48.3605000000	  35.1813000000	  24.1841000000
S	  49.2257000000	  36.0923000000	  23.2633000000
O	  49.3221000000	  35.5462000000	  21.9391000000
O	  49.1123000000	  37.5230000000	  23.4718000000
C	  50.9017000000	  35.7399000000	  24.0008000000
F	  51.8780000000	  36.2107000000	  23.1758000000
F	  51.1173000000	  34.4258000000	  24.1762000000
F	  51.1548000000	  36.2502000000	  25.1922000000
S	  47.7603000000	  33.8934000000	  23.7273000000
O	  48.6269000000	  33.0319000000	  22.9743000000
O	  46.3531000000	  33.8589000000	  23.4516000000
C	  47.6814000000	  33.0359000000	  25.2983000000
F	  46.7136000000	  32.0547000000	  25.3383000000
F	  48.8595000000	  32.4634000000	  25.5959000000
F	  47.5207000000	  33.8590000000	  26.3105000000
