20

Li	  33.5552000000	  11.2124000000	   5.9034500000
O	  35.9556000000	   9.1509300000	   8.6524600000
O	  34.2866000000	  10.2354000000	   7.4678700000
C	  35.2056000000	   9.8767200000	   9.6076400000
C	  34.3245000000	  10.7695000000	   8.7908300000
C	  35.1493000000	   9.1308500000	   7.5299800000
H	  34.7357000000	   9.1848300000	  10.2107000000
H	  35.8672000000	  10.4892000000	  10.2514000000
H	  33.2692000000	  10.8322000000	   9.0998900000
H	  34.7809000000	  11.7423000000	   8.7351100000
H	  35.7778000000	   9.1628800000	   6.6245900000
H	  34.5385000000	   8.1950300000	   7.4970400000
S	  35.0911000000	  11.5708000000	   4.4561400000
S	  35.4282000000	  12.9834000000	   5.9909400000
S	  34.0312000000	  14.5016000000	   6.3823400000
S	  30.7479000000	  11.6201000000	   7.6007900000
S	  30.7331000000	  10.9259000000	   5.5787700000
S	  32.2995000000	   9.6941400000	   5.0459100000
S	  30.9914000000	  13.7636000000	   7.5696300000
S	  32.9723000000	  14.1868000000	   8.1612100000
