32

Li	   9.9830700000	   9.8912800000	  54.1635000000
N	   8.4615400000	   6.1916500000	  56.0164000000
S	   9.8175200000	   5.6368800000	  55.4938000000
O	  10.0892000000	   6.0395800000	  54.1662000000
O	  10.9067000000	   5.6329000000	  56.4041000000
C	   9.3637200000	   3.8243600000	  55.2193000000
F	   8.3274300000	   3.6811900000	  54.3626000000
F	   9.0328600000	   3.1962000000	  56.3410000000
F	  10.3525000000	   3.1232800000	  54.6470000000
S	   7.9711200000	   7.6436000000	  56.0039000000
O	   8.9436700000	   8.4837100000	  55.2699000000
O	   7.3336800000	   8.0987700000	  57.2113000000
C	   6.6070900000	   7.3117100000	  54.9340000000
F	   5.7179000000	   6.4248200000	  55.3657000000
F	   5.8604300000	   8.4458400000	  54.8004000000
F	   7.0815100000	   6.9563300000	  53.7519000000
S	   9.6468500000	   9.9915300000	  52.1161000000
S	  11.4738000000	  11.0362000000	  51.7963000000
S	  13.0679000000	   9.6323200000	  52.1924000000
S	  12.3369000000	   9.0532200000	  56.6405000000
S	  12.7723000000	   8.1470500000	  58.5090000000
S	  11.4875000000	   6.5477900000	  59.1901000000
S	  14.0310000000	   8.9498800000	  55.4202000000
S	  14.0203000000	  10.3771000000	  53.9200000000
S	   9.7317600000	  11.5074000000	  55.6932000000
S	   7.8332900000	  12.3631000000	  55.9568000000
S	   6.9058800000	  11.7553000000	  57.7615000000
S	   5.3559300000	  13.2098000000	  62.4663277989
S	   3.4339200000	  12.3283000000	  62.6833777989
S	   3.1126500000	  11.3820000000	  64.4637477989
S	   6.5651400000	  12.1610000000	  61.1404177989
S	   6.8499500000	  13.1067000000	  59.2835477989
