64

Li	  54.1824000000	  39.1415000000	   6.2024400000
O	  55.5891000000	  39.9472000000	   7.5473900000
O	  57.0308000000	  41.7896000000	   7.6891200000
C	  56.9454000000	  39.4707000000	   7.6468200000
C	  57.8367000000	  40.7012000000	   7.2410900000
C	  55.8283000000	  41.2462000000	   8.0736000000
H	  57.1920000000	  39.2292000000	   8.6910400000
H	  57.1120000000	  38.6259000000	   7.0466300000
H	  58.6908000000	  40.5887000000	   7.8228100000
H	  58.1533000000	  40.7787000000	   6.2467600000
H	  55.1304000000	  42.0115000000	   7.8411900000
H	  55.7266000000	  41.1951000000	   9.1774600000
O	  54.0132000000	  37.2308000000	   6.9570900000
O	  54.5250000000	  35.2155000000	   7.7184000000
C	  53.0536000000	  36.4020000000	   6.2995800000
C	  53.2369000000	  35.1175000000	   7.0749600000
C	  54.6466000000	  36.5584000000	   7.9589700000
H	  52.0574000000	  36.8162000000	   6.4268900000
H	  53.3210000000	  36.2207000000	   5.2837300000
H	  52.4579000000	  35.0538000000	   7.8686700000
H	  53.1191000000	  34.2013000000	   6.4645800000
H	  55.6495000000	  36.8440000000	   8.1388800000
H	  54.0663000000	  36.6934000000	   8.8714300000
O	  52.7154000000	  39.6493000000	   7.6675400000
O	  51.2258000000	  41.0855000000	   8.4466500000
C	  52.8246000000	  39.6829000000	   9.0381100000
C	  52.1116000000	  40.9067000000	   9.4456100000
C	  51.9687000000	  40.7440000000	   7.3245600000
H	  52.3043000000	  38.8366000000	   9.4438800000
H	  53.7938000000	  39.5783000000	   9.4513000000
H	  51.6864000000	  40.8500000000	  10.4321000000
H	  52.7698000000	  41.7578000000	   9.6091100000
H	  52.7698000000	  41.5048000000	   7.1474500000
H	  51.3121000000	  40.5796000000	   6.4915300000
N	  53.5237000000	  40.6339000000	   2.8913000000
S	  54.3062000000	  41.5086000000	   3.8984600000
O	  54.3920000000	  41.0538000000	   5.2781600000
O	  55.4781000000	  42.0718000000	   3.3016300000
C	  53.3122000000	  43.0043000000	   3.9768900000
F	  52.9516000000	  43.4008000000	   2.7531800000
F	  53.8877000000	  44.0150000000	   4.6345500000
F	  52.1266000000	  42.7175000000	   4.5307900000
S	  52.9124000000	  39.2869000000	   3.2487400000
O	  52.6663000000	  39.0389000000	   4.6350000000
O	  53.4536000000	  38.2740000000	   2.3988900000
C	  51.2031000000	  39.5413000000	   2.5370100000
F	  50.6830000000	  40.6040000000	   3.0695500000
F	  51.2773000000	  39.7381000000	   1.2423500000
F	  50.4233000000	  38.5573000000	   2.8003200000
N	  57.0065000000	  36.2701000000	   4.6178200000
S	  56.3687000000	  37.5341000000	   3.9935800000
O	  55.8861000000	  37.3399000000	   2.6443800000
O	  55.6460000000	  38.3606000000	   4.9440900000
C	  57.9097000000	  38.4624000000	   3.6741600000
F	  58.8732000000	  38.3841000000	   4.5997000000
F	  57.6176000000	  39.7058000000	   3.6104200000
F	  58.4546000000	  38.1761000000	   2.4850700000
S	  56.3066000000	  34.9092000000	   4.8095600000
O	  55.0047000000	  34.7899000000	   4.1806400000
O	  56.4313000000	  34.3571000000	   6.1423200000
C	  57.3749000000	  33.8423000000	   3.7069200000
F	  58.5527000000	  33.4837000000	   4.2804800000
F	  56.7891000000	  32.6959000000	   3.5509300000
F	  57.6601000000	  34.3915000000	   2.5711100000
