53

Li	  18.3945000000	  48.9881000000	   5.0313600000
O	  20.3148000000	  48.6438000000	   5.5552700000
O	  22.5745000000	  48.2122000000	   5.2331600000
C	  21.0261000000	  49.5087000000	   6.3834100000
C	  22.4505000000	  49.5347000000	   5.8848100000
C	  21.2603000000	  47.8606000000	   4.9043700000
H	  20.5461000000	  50.4186000000	   6.4673300000
H	  21.0911000000	  49.0909000000	   7.3608800000
H	  22.5349000000	  50.3151000000	   5.1805800000
H	  23.1302000000	  49.7147000000	   6.6568800000
H	  21.1162000000	  46.8328000000	   5.2050900000
H	  21.0570000000	  47.8821000000	   3.7973500000
O	  18.7197000000	  50.4057000000	   3.8430700000
O	  18.7797000000	  52.5506000000	   3.2099300000
C	  18.8790000000	  50.3738000000	   2.4412100000
C	  18.8747000000	  51.8645000000	   1.9576200000
C	  18.2037000000	  51.6643000000	   4.0940800000
H	  19.8927000000	  50.0341000000	   2.3178000000
H	  18.2347000000	  49.6764000000	   1.9358300000
H	  19.7797000000	  52.1692000000	   1.3575300000
H	  17.9641000000	  51.9635000000	   1.3728500000
H	  17.1083000000	  51.7100000000	   4.0358600000
H	  18.5295000000	  52.0933000000	   5.0818600000
N	  15.8642000000	  47.7868000000	   2.5130200000
S	  15.3206000000	  48.3711000000	   3.8552100000
O	  14.3458000000	  47.5271000000	   4.4993000000
O	  16.1859000000	  49.1898000000	   4.6264100000
C	  14.2366000000	  49.7493000000	   3.1296800000
F	  13.2472000000	  49.3319000000	   2.4511800000
F	  15.0220000000	  50.5695000000	   2.4000500000
F	  13.6618000000	  50.5179000000	   4.0586300000
S	  17.2260000000	  47.0749000000	   2.3467400000
O	  18.1304000000	  47.3605000000	   3.4116800000
O	  17.7777000000	  47.2250000000	   0.9754730000
C	  16.8981000000	  45.3241000000	   2.5846500000
F	  15.9653000000	  44.9496000000	   1.6706300000
F	  17.9876000000	  44.5349000000	   2.3646600000
F	  16.4420000000	  45.0397000000	   3.7894500000
N	  16.6889000000	  48.4133000000	   8.0562800000
S	  16.8725000000	  47.1538000000	   7.2102600000
O	  15.5616000000	  46.5996000000	   6.9069400000
O	  17.7967000000	  47.4054000000	   6.1054500000
C	  17.6707000000	  45.9473000000	   8.3788300000
F	  17.1100000000	  45.9064000000	   9.5105900000
F	  18.8775000000	  46.3318000000	   8.7408600000
F	  17.6870000000	  44.7264000000	   7.9605500000
S	  16.8932000000	  49.9644000000	   7.7943100000
O	  15.6930000000	  50.7443000000	   7.8685500000
O	  17.7787000000	  50.1643000000	   6.6670600000
C	  17.8211000000	  50.4967000000	   9.1968900000
F	  19.0033000000	  49.9376000000	   9.2068400000
F	  17.9971000000	  51.7652000000	   9.3568100000
F	  17.2425000000	  50.0594000000	  10.3123000000
