42

Li	   5.6018700000	   4.3626100000	  43.0045000000
F	   4.0135800000	   5.2761500000	  41.2496000000
F	   2.7692400000	   3.6498800000	  42.1901000000
F	   1.6124700000	   4.8865400000	  40.1095000000
F	   0.5044560921	   5.0673700000	  41.9398000000
O	   4.2548900000	   5.2719900000	  44.0122000000
C	   2.9106100000	   4.9744300000	  41.9769000000
C	   3.0822200000	   5.7586400000	  43.3247000000
C	   1.6062300000	   5.4555900000	  41.2908000000
C	   4.2200600000	   5.5087200000	  45.4092000000
C	   5.2527300000	   4.7474500000	  46.1441000000
H	   3.2186000000	   6.7992200000	  43.0794000000
H	   2.2200900000	   5.8719800000	  43.9586000000
H	   1.5811500000	   6.5415300000	  41.1411000000
H	   4.4416900000	   6.5590200000	  45.6048000000
H	   3.1544100000	   5.3442600000	  45.7655000000
H	   6.3255000000	   4.9963100000	  45.8396000000
H	   5.2531800000	   4.9980400000	  47.1901000000
H	   5.2401500000	   3.7246200000	  45.9738000000
N	   7.7317700000	   7.5405900000	  41.0387000000
S	   7.9043100000	   6.7097700000	  39.7450000000
O	   8.0144100000	   5.2807700000	  39.9791000000
O	   7.2213700000	   7.3126900000	  38.5880000000
C	   9.6243600000	   7.1753700000	  39.3203000000
F	   9.8326200000	   8.4676300000	  39.0095000000
F	   9.9807900000	   6.4793500000	  38.2069000000
F	  10.5050000000	   6.9220600000	  40.2416000000
S	   6.9311000000	   7.3364800000	  42.3330000000
O	   6.2869800000	   6.0374400000	  42.4541000000
O	   6.1646800000	   8.5115000000	  42.7337000000
C	   8.2517900000	   7.1884100000	  43.5773000000
F	   9.0994100000	   8.2301300000	  43.5595000000
F	   7.7084900000	   7.0926300000	  44.8085000000
F	   9.0355300000	   6.2184900000	  43.4089000000
S	  10.3857000000	   3.4159900000	  52.3206000000
S	  11.1521000000	   1.9875300000	  50.9871000000
S	  11.8248000000	   2.7924900000	  49.1428000000
S	   9.5274100000	   1.8562000000	  44.3976000000
S	   8.2101300000	   3.0385500000	  43.2173000000
S	   6.1845900000	   2.4033000000	  43.5354000000
S	  10.2662000000	   2.9907800000	  46.0861000000
S	  11.3447000000	   1.7273200000	  47.3831000000
