42

Li	  42.8639000000	  29.5183000000	  18.3577000000
O	  41.1961000000	  32.4098000000	  21.1944000000
O	  41.9623000000	  31.2013000000	  19.4564000000
C	  41.2467000000	  33.3018000000	  20.0414000000
C	  41.7242000000	  32.4412000000	  18.9025000000
C	  41.0950000000	  31.1492000000	  20.5903000000
H	  40.1847000000	  33.6051000000	  19.7834000000
H	  41.9066000000	  34.1306000000	  20.1788000000
H	  40.9202000000	  32.4555000000	  18.1433000000
H	  42.6445000000	  32.7861000000	  18.4819000000
H	  41.3925000000	  30.3868000000	  21.3318000000
H	  40.1235000000	  30.8102000000	  20.1207000000
N	  41.1443000000	  29.1623000000	  15.5316000000
S	  42.5020000000	  29.9103000000	  15.3007000000
O	  43.0896000000	  30.2625000000	  16.5610000000
O	  43.3384000000	  29.3704000000	  14.2349000000
C	  42.0436000000	  31.5589000000	  14.5995000000
F	  41.5853000000	  31.3795000000	  13.3507000000
F	  43.1209000000	  32.2610000000	  14.4137000000
F	  41.1755000000	  32.2776000000	  15.2853000000
S	  40.3129000000	  29.1165000000	  16.8513000000
O	  39.3007000000	  30.1400000000	  16.8689000000
O	  41.0029000000	  28.7175000000	  18.0767000000
C	  39.1777000000	  27.7343000000	  16.5448000000
F	  38.3199000000	  28.0643000000	  15.5456000000
F	  39.8466000000	  26.6155000000	  16.2875000000
F	  38.3822000000	  27.5539000000	  17.6288000000
N	  45.6531000000	  29.4364000000	  20.5886000000
S	  45.7505000000	  30.5003000000	  19.3994000000
O	  46.7699000000	  30.1182000000	  18.4335000000
O	  44.5047000000	  31.0282000000	  18.8610000000
C	  46.4958000000	  31.9001000000	  20.3377000000
F	  45.6553000000	  32.3006000000	  21.2525000000
F	  46.8670000000	  32.9312000000	  19.6200000000
F	  47.5810000000	  31.5280000000	  20.9406000000
S	  44.4155000000	  29.0893000000	  21.4738000000
O	  43.2729000000	  28.9514000000	  20.6064000000
O	  44.2585000000	  29.8577000000	  22.6578000000
C	  44.7524000000	  27.3446000000	  22.1635000000
F	  45.2002000000	  26.5240000000	  21.2491000000
F	  45.6271000000	  27.3111000000	  23.1583000000
F	  43.6451000000	  26.7660000000	  22.5755000000
