45

Li	  40.1048000000	  40.0818000000	  15.1758000000
O	  39.8884000000	  41.9448000000	  14.8831000000
O	  40.1147000000	  44.2722000000	  15.4069000000
C	  38.6272000000	  42.4454000000	  15.0072000000
C	  38.8616000000	  43.8504000000	  15.6811000000
C	  40.7422000000	  43.0537000000	  14.8580000000
H	  38.1607000000	  42.4861000000	  14.0389000000
H	  37.9547000000	  41.7685000000	  15.5056000000
H	  38.0329000000	  44.5638000000	  15.4023000000
H	  38.7841000000	  43.7033000000	  16.7817000000
H	  41.7466000000	  42.8694000000	  15.2092000000
H	  40.7215000000	  43.2172000000	  13.7361000000
O	  41.0196000000	  39.9154000000	  16.9428000000
O	  43.0980000000	  40.5312000000	  16.5328000000
C	  41.2789000000	  41.0234000000	  17.8235000000
C	  42.7776000000	  41.4209000000	  17.5711000000
C	  42.2757000000	  39.4281000000	  16.7747000000
H	  40.5480000000	  41.8319000000	  17.4872000000
H	  41.1517000000	  40.7465000000	  18.9131000000
H	  42.9647000000	  42.4064000000	  17.2601000000
H	  43.4458000000	  41.1635000000	  18.3521000000
H	  42.4349000000	  38.6705000000	  17.5416000000
H	  42.3185000000	  38.7413000000	  15.9283000000
O	  41.0766000000	  39.6985000000	  13.5493000000
O	  42.3832000000	  40.0099000000	  11.7288000000
C	  41.6461000000	  38.4457000000	  13.2591000000
C	  42.8655000000	  38.9053000000	  12.5425000000
C	  41.2160000000	  40.3516000000	  12.3032000000
H	  41.9345000000	  37.8861000000	  14.1474000000
H	  41.0414000000	  37.7515000000	  12.6948000000
H	  43.6342000000	  39.3479000000	  13.2544000000
H	  43.3432000000	  38.1824000000	  11.9360000000
H	  40.4156000000	  40.1466000000	  11.5963000000
H	  41.1680000000	  41.4682000000	  12.4150000000
O	  38.4949000000	  39.3878000000	  15.4253000000
O	  37.1955000000	  37.8695000000	  14.3146000000
C	  38.7686000000	  38.1078000000	  16.0130000000
C	  38.3121000000	  37.1905000000	  14.8690000000
C	  37.2556000000	  39.2054000000	  14.8394000000
H	  39.7649000000	  38.0209000000	  16.3581000000
H	  38.1279000000	  38.0823000000	  16.9566000000
H	  39.0006000000	  37.0756000000	  14.0565000000
H	  38.0500000000	  36.2209000000	  15.2895000000
H	  36.4233000000	  39.3326000000	  15.5144000000
H	  37.1002000000	  39.9098000000	  14.0814000000
