47

Li	  29.3936000000	   3.9496100000	  47.1572000000
O	  30.5783000000	   6.3499300000	  44.3495000000
O	  30.2259000000	   4.5370600000	  45.6158000000
C	  31.7063000000	   6.2985500000	  45.2501000000
C	  31.6062000000	   4.8013500000	  45.7923000000
C	  29.8465000000	   5.1741700000	  44.4514000000
H	  32.6818000000	   6.4029300000	  44.8449000000
H	  31.5585000000	   7.1025100000	  45.9699000000
H	  32.2574000000	   4.1771400000	  45.2176000000
H	  32.0124000000	   4.6242200000	  46.8153000000
H	  28.7804000000	   5.3541500000	  44.4618000000
H	  30.0281000000	   4.5235900000	  43.5583000000
S	  26.4133000000	   3.9793900000	  45.9497000000
O	  26.4692000000	   5.2199400000	  44.7749000000
O	  26.3692000000	   2.5183600000	  45.0853000000
O	  27.6590000000	   3.9845200000	  46.8443000000
C	  25.5170000000	   5.1623200000	  43.6681000000
C	  25.2835000000	   1.6403000000	  45.2992000000
H	  24.5533000000	   5.5042000000	  43.8671000000
H	  25.8209000000	   5.6735400000	  42.7806000000
H	  25.5494000000	   4.1476500000	  43.2298000000
H	  25.4506000000	   1.2665900000	  46.3234000000
H	  24.3999000000	   2.2426600000	  45.1584000000
H	  25.2690000000	   0.7245175330	  44.6361000000
N	  27.9058000000	   0.2116175330	  47.3211000000
S	  29.3051000000	   0.5341175330	  46.6930000000
O	  29.4584000000	   1.9470200000	  46.5929000000
O	  30.3800000000	  -0.2693824670	  47.1502000000
C	  29.0069000000	  -0.1802824670	  45.0156000000
F	  28.5065000000	  -1.4201824670	  44.9711000000
F	  30.1143000000	  -0.1946824670	  44.3408000000
F	  28.1860000000	   0.5824175330	  44.3061000000
S	  27.5515000000	  -0.5151824670	  48.6132000000
O	  28.6862000000	  -0.8202824670	  49.4910000000
O	  26.5517000000	  -1.5396824670	  48.5023000000
C	  26.7078000000	   0.8100175330	  49.5729000000
F	  26.3791000000	   0.3415175330	  50.7947000000
F	  27.3731000000	   1.9244900000	  49.8076000000
F	  25.5567000000	   1.1425600000	  49.0005000000
S	  30.2585000000	   3.7614500000	  48.9933000000
S	  29.5912000000	   5.7586100000	  48.7301000000
S	  28.0150000000	   6.1915400000	  50.0852000000
S	  23.5799000000	   5.5188400000	  51.7927000000
S	  23.5503000000	   4.3515900000	  53.5770000000
S	  21.8614000000	   3.1094700000	  53.6236000000
S	  24.9797000000	   4.6202400000	  50.4823000000
S	  26.0487000000	   5.9386400000	  49.2865000000
