51

Li	  38.9973000000	  36.4732000000	  47.4784000000
O	  38.7049000000	  38.5966000000	  51.0736000000
O	  38.9848000000	  37.3103000000	  49.2602000000
C	  37.9032000000	  37.3944000000	  51.2489000000
C	  38.5538000000	  36.4256000000	  50.2670000000
C	  39.4679000000	  38.4476000000	  49.9065000000
H	  37.8828000000	  37.1630000000	  52.3475000000
H	  36.9187000000	  37.6459000000	  50.9857000000
H	  39.4399000000	  35.9313000000	  50.7673000000
H	  37.8082000000	  35.6225000000	  50.0881000000
H	  39.3202000000	  39.3276000000	  49.2611000000
H	  40.5012000000	  38.4501000000	  50.1714000000
S	  39.4687000000	  39.3495000000	  45.3030000000
O	  38.3905000000	  39.5591000000	  43.9613000000
O	  39.4958000000	  40.7017000000	  46.3718000000
O	  39.1049000000	  38.1328000000	  46.1333000000
C	  38.4247000000	  38.5121000000	  43.0552000000
C	  39.6205000000	  41.8817000000	  45.6816000000
H	  38.0825000000	  37.5902000000	  43.5160000000
H	  37.8243000000	  38.7846000000	  42.2043000000
H	  39.5292000000	  38.3423000000	  42.7984000000
H	  39.8601000000	  42.5892000000	  46.4013000000
H	  40.4245000000	  42.0010000000	  44.9001000000
H	  38.7101000000	  42.1826000000	  45.3110000000
S	  35.7693000000	  36.3593000000	  46.9147000000
O	  35.0673000000	  34.8536000000	  46.3288000000
O	  35.2417000000	  36.7616000000	  48.5131000000
O	  37.2731000000	  36.2396000000	  46.9023000000
C	  35.5240000000	  33.7159000000	  46.9539000000
C	  35.0802000000	  38.1487000000	  48.6762000000
H	  36.6306000000	  33.7558000000	  46.9936000000
H	  35.0405000000	  33.4370000000	  47.8817000000
H	  35.4387000000	  32.7916000000	  46.3623000000
H	  34.4515000000	  38.6006000000	  47.9124000000
H	  34.6680000000	  38.4691000000	  49.6845000000
H	  36.1000000000	  38.6277000000	  48.6553000000
N	  41.6233000000	  34.4070000000	  48.5766000000
S	  40.1968000000	  33.7586000000	  48.5198000000
O	  39.8661000000	  33.2792000000	  49.8908000000
O	  39.2361000000	  34.4036000000	  47.7423000000
C	  40.5365000000	  32.2317000000	  47.6149000000
F	  41.7373000000	  31.6693000000	  47.8566000000
F	  40.4604000000	  32.4570000000	  46.3285000000
F	  39.5878000000	  31.3533000000	  47.8923000000
S	  42.0264000000	  35.8600000000	  48.1305000000
O	  42.7360000000	  36.5638000000	  49.2040000000
O	  41.0700000000	  36.5749000000	  47.3678000000
C	  43.3360000000	  35.5359000000	  46.8578000000
F	  44.3475000000	  34.7625000000	  47.3465000000
F	  42.9241000000	  34.9920000000	  45.7525000000
F	  43.8968000000	  36.6080000000	  46.4806000000
