29

Li	  22.0035000000	   6.9029200000	   6.8082000000
S	  22.5602000000	  10.0868000000	   6.9991800000
O	  21.4165000000	  10.8281000000	   6.0622800000
O	  22.2998000000	  10.6418000000	   8.6205200000
O	  22.3836000000	   8.5776000000	   7.0941600000
C	  20.3884000000	   9.9198700000	   5.5729900000
C	  22.8832000000	  11.8872000000	   8.8339100000
H	  19.5897000000	   9.6394500000	   6.2135300000
H	  19.9873000000	  10.4433000000	   4.6857000000
H	  20.8841000000	   9.0430100000	   5.0708300000
H	  23.2497000000	  12.2581000000	   7.8757400000
H	  22.0449000000	  12.5968000000	   9.1362300000
H	  23.7475000000	  11.9353000000	   9.4778700000
S	  27.9487000000	  12.8187000000	  13.6746000000
S	  27.8036000000	  12.7648000000	  11.6226000000
S	  27.9467000000	  10.8605000000	  10.8287000000
S	  25.7737000000	   6.8664800000	   8.8883600000
S	  23.8762000000	   6.1490300000	   8.3341800000
S	  23.6929000000	   5.6768700000	   6.2689100000
S	  25.9831000000	   9.0137700000	   8.5907400000
S	  26.0108000000	  10.0490000000	  10.3401000000
S	  12.0950000000	   2.4413700000	  12.2032000000
S	  12.4805000000	   4.3327100000	  11.5343000000
S	  13.8695000000	   4.0009200000	   9.8538700000
S	  19.0294000000	   4.2757500000	   8.5639600000
S	  19.7546000000	   6.2171900000	   8.1233800000
S	  20.2020000000	   6.5279300000	   6.0213700000
S	  16.8812000000	   4.2096400000	   8.4303000000
S	  15.8615000000	   4.0478800000	  10.3042000000
