24

Li	  51.5380000000	  55.5507000000	  19.4042000000
O	  51.9036000000	  55.1369000000	  23.4420000000
O	  51.8810000000	  55.5419000000	  21.2168000000
C	  52.6442000000	  56.3465000000	  23.2219000000
C	  52.9237000000	  56.3874000000	  21.7652000000
C	  51.2259000000	  54.8240000000	  22.2664000000
H	  51.9082000000	  57.1267000000	  23.5085000000
H	  53.5515000000	  56.3805000000	  23.8254000000
H	  52.9718000000	  57.4448000000	  21.3711000000
H	  53.8551000000	  55.9048000000	  21.5771000000
H	  51.2943000000	  53.7264000000	  22.1012000000
H	  50.2274000000	  55.2388000000	  22.0898000000
S	  54.0651000000	  56.9330000000	  18.1741000000
O	  54.3487000000	  57.9153000000	  19.5416000000
O	  55.4218000000	  55.9983000000	  17.9852000000
O	  52.9033000000	  55.9559000000	  18.4087000000
C	  53.7610000000	  59.2583624670	  19.4427000000
C	  55.2142000000	  55.0075000000	  16.9904000000
H	  52.6458000000	  59.3031624670	  19.4384000000
H	  54.0492000000	  59.7338524670	  20.3800000000
H	  54.1814000000	  59.7704424670	  18.5707000000
H	  56.0158000000	  54.2762000000	  16.9298000000
H	  54.4397000000	  54.3072000000	  17.2963000000
H	  55.1092000000	  55.4267000000	  15.9699000000
