32

Li	  16.3062000000	   5.2804100000	   5.1574000000
O	  14.9752000000	   6.6157400000	   4.4925500000
O	  13.8334000000	   7.5053200000	   2.7208700000
C	  14.3543000000	   7.7803900000	   4.9883000000
C	  14.0929000000	   8.5326100000	   3.6667800000
C	  14.6504000000	   6.5418300000	   3.1293300000
H	  13.4081000000	   7.7296300000	   5.5395500000
H	  15.0024000000	   8.3359700000	   5.5415600000
H	  13.3583000000	   9.3784400000	   3.7184200000
H	  15.0216000000	   8.9768600000	   3.3430900000
H	  15.6332000000	   6.6500200000	   2.6938400000
H	  14.3677000000	   5.5578800000	   2.7689100000
S	  15.4327000000	   2.6643900000	   3.1445500000
O	  16.1665000000	   3.7165900000	   2.0124500000
O	  15.6095000000	   3.4201600000	   4.6767900000
O	  13.9317000000	   2.7112300000	   2.8190200000
C	  17.5725000000	   3.6872200000	   1.9750200000
C	  15.0611000000	   2.6268600000	   5.6872900000
H	  17.9955000000	   4.0395400000	   2.9882400000
H	  17.8926000000	   2.7017800000	   1.5886000000
H	  18.0730000000	   4.3652000000	   1.2747100000
H	  14.1346000000	   2.1372600000	   5.3236000000
H	  15.8199000000	   1.8906300000	   6.0098200000
H	  14.7662000000	   3.3228100000	   6.5116300000
S	  16.6652000000	   5.0874800000	   7.2360100000
S	  18.2601000000	   4.9937100000	   5.8463600000
S	  18.2260000000	   6.3529100000	   4.2445900000
S	  18.8091000000	  10.5398000000	   2.3934900000
S	  20.2270000000	  12.1019000000	   2.0578300000
S	  22.1319000000	  11.1212000000	   1.5220800000
S	  18.9353000000	   9.8213000000	   4.3432400000
S	  19.6176000000	   7.9161900000	   4.4323600000
