48

Li	  24.4132000000	  48.9165000000	   6.6647100000
O	  23.6679000000	  48.0928000000	   4.6234100000
O	  25.6622000000	  48.8889000000	   5.2504700000
C	  24.3965000000	  46.8761000000	   4.8832600000
C	  25.7135000000	  47.4723000000	   5.4567200000
C	  24.6019000000	  49.0718000000	   4.3481500000
H	  23.7345000000	  46.3246000000	   5.5619200000
H	  24.5349000000	  46.2930000000	   3.9365900000
H	  25.8881000000	  47.1309000000	   6.4695700000
H	  26.5279000000	  46.9875000000	   4.8504800000
H	  25.0429000000	  48.7356000000	   3.3852800000
H	  24.1487000000	  50.0241000000	   4.0352300000
S	  21.6780000000	  50.8336000000	   7.3351800000
O	  20.4908000000	  49.6405000000	   6.9905300000
O	  21.6548000000	  51.0972000000	   9.0112100000
O	  23.0755000000	  50.2265000000	   7.0009900000
C	  20.5204000000	  49.2614000000	   5.6052800000
C	  22.5288000000	  52.0958000000	   9.4614400000
H	  20.8912000000	  48.1847000000	   5.4772600000
H	  19.4875000000	  49.2461000000	   5.2486200000
H	  21.1120000000	  50.0183000000	   5.0911300000
H	  22.5101000000	  51.9852000000	  10.5399000000
H	  23.5162000000	  52.0841000000	   9.0639800000
H	  21.9701000000	  53.0127000000	   9.2822300000
S	  22.2870000000	  47.5070000000	   8.5757600000
O	  22.1744000000	  45.8363000000	   9.0542800000
O	  22.6177000000	  48.3767000000	   9.9497300000
O	  23.4627000000	  47.7010000000	   7.6070900000
C	  22.9694000000	  44.9882000000	   8.3587000000
C	  23.9193000000	  48.1916000000	  10.5445000000
H	  22.8670000000	  45.1588000000	   7.2936300000
H	  24.0279000000	  45.3112000000	   8.4810500000
H	  22.9515000000	  43.9294000000	   8.6110000000
H	  23.9474000000	  48.5548000000	  11.5754000000
H	  24.0981000000	  47.0847000000	  10.5339000000
H	  24.6878000000	  48.6428000000	   9.9040200000
S	  27.3938000000	  49.2139000000	   8.4575700000
O	  27.2808000000	  49.8311000000	  10.0883000000
O	  28.0157000000	  47.6686000000	   8.4628800000
O	  26.0189000000	  49.1361000000	   7.8156400000
C	  26.6477000000	  51.1654000000	  10.2955000000
C	  29.4002000000	  47.7174000000	   8.2663600000
H	  25.9180000000	  51.2321000000	   9.6065600000
H	  26.2216000000	  51.1106000000	  11.3046000000
H	  27.3960000000	  51.9559000000	  10.2535000000
H	  29.9903000000	  46.8262000000	   8.5843200000
H	  29.5927000000	  47.8644000000	   7.1577500000
H	  29.8303000000	  48.6261000000	   8.7287300000
