35

Li	  23.4413000000	   7.2619700000	  37.3414000000
O	  22.5507000000	  11.1465000000	  37.9481000000
O	  22.9767000000	   8.9957900000	  38.0455000000
C	  21.6995000000	  10.5608000000	  38.9143000000
C	  22.4789000000	   9.3609200000	  39.3378000000
C	  23.4606000000	  10.1538000000	  37.5914000000
H	  21.3378000000	  11.2090000000	  39.7575000000
H	  20.8403000000	  10.4104000000	  38.3450000000
H	  23.2486000000	   9.7046700000	  39.9893000000
H	  21.9957000000	   8.4559500000	  39.7574000000
H	  23.6550000000	   9.8701500000	  36.5586000000
H	  24.4670000000	  10.3426000000	  38.0254000000
N	  25.1713000000	   6.2123200000	  34.0318000000
S	  25.4195000000	   7.5206400000	  34.7894000000
O	  25.3783000000	   8.7789200000	  34.0354000000
O	  24.8860000000	   7.5283000000	  36.1399000000
C	  27.2222000000	   7.3684600000	  35.2242000000
F	  27.6398000000	   8.4328800000	  35.9818000000
F	  27.9318000000	   7.3226900000	  34.1472000000
F	  27.5072000000	   6.2339000000	  35.8806000000
S	  23.9481000000	   6.0792300000	  33.1218000000
O	  24.0957000000	   6.8515000000	  31.9250000000
O	  22.6825000000	   6.1956900000	  33.8082000000
C	  24.0349000000	   4.3320300000	  32.5488000000
F	  24.9431000000	   4.0123800000	  31.6613000000
F	  24.4551000000	   3.5673500000	  33.5645000000
F	  22.8691000000	   3.7608200000	  32.2106000000
S	  21.5546000000	   6.5028900000	  37.2128000000
S	  19.7097000000	   6.8167500000	  36.2972000000
S	  18.8028000000	   8.4653400000	  37.3011000000
S	  16.7627000000	  11.1373000000	  40.3708000000
S	  18.0782000000	  12.4902000000	  39.3150000000
S	  19.5798000000	  13.2158000000	  40.5470000000
S	  16.1720000000	   9.6888600000	  38.9254000000
S	  17.4082000000	   7.9904300000	  38.7596000000
