35

Li	  37.4005000000	  54.3218000000	  17.2179000000
O	  36.5370000000	  52.5858000000	  17.5436000000
O	  36.4830000000	  50.4776000000	  18.1387000000
C	  35.8208000000	  51.9604000000	  16.4836000000
C	  35.7461000000	  50.4674000000	  17.0019000000
C	  37.3368000000	  51.5575000000	  18.0193000000
H	  34.8102000000	  52.3752000000	  16.2058000000
H	  36.3085000000	  52.0086000000	  15.5523000000
H	  34.6858000000	  50.2011000000	  17.1091000000
H	  36.1733000000	  49.8188000000	  16.2415000000
H	  38.1252000000	  51.2918000000	  17.3149000000
H	  37.6326000000	  51.6289000000	  19.0374000000
O	  38.9710000000	  53.7633000000	  16.2764000000
O	  39.3397000000	  52.2968000000	  14.6576000000
C	  40.2769000000	  53.1936000000	  16.4230000000
C	  40.5790000000	  52.4381000000	  15.1726000000
C	  38.6801000000	  53.4791000000	  15.0039000000
H	  41.0489000000	  54.0105000000	  16.3997000000
H	  40.5424000000	  52.6703000000	  17.3401000000
H	  41.2458000000	  53.0137000000	  14.4742000000
H	  41.0438000000	  51.4396000000	  15.3375000000
H	  37.6462000000	  53.4033000000	  14.7899000000
H	  38.9766000000	  54.2152000000	  14.3084000000
S	  34.7240000000	  56.0965000000	  16.7120000000
O	  33.4798000000	  55.0570000000	  16.1435000000
O	  34.2931000000	  56.6498000000	  18.3288000000
O	  35.9329000000	  55.1977000000	  16.8697000000
C	  32.4619000000	  55.8678000000	  15.5796000000
C	  34.7148000000	  57.9820000000	  18.4989000000
H	  31.7037000000	  55.2799000000	  15.1028000000
H	  31.9681000000	  56.4106000000	  16.3417000000
H	  32.8464000000	  56.6343000000	  14.8367000000
H	  34.2914000000	  58.6258000000	  17.7626000000
H	  34.3611000000	  58.3781000000	  19.4622000000
H	  35.7761000000	  58.0352000000	  18.3434000000
