39

Li	   5.8184100000	  28.6404000000	  34.8003000000
O	   9.0151900000	  26.5471000000	  35.9355000000
O	   7.5246500000	  27.8463000000	  34.6617000000
C	   9.6713700000	  26.8624000000	  34.7280000000
C	   8.6207900000	  27.6984000000	  33.8998000000
C	   7.9055000000	  27.3999000000	  35.9784000000
H	  10.5083000000	  27.5485000000	  34.9939000000
H	  10.1816000000	  26.0569000000	  34.2461000000
H	   8.9878100000	  28.6472000000	  33.5579000000
H	   8.3101400000	  27.0804000000	  33.1228000000
H	   7.0184000000	  27.1209000000	  36.5691000000
H	   8.2970400000	  28.2645000000	  36.4920000000
S	   3.8967900000	  27.8841000000	  37.3948000000
O	   3.9246900000	  29.2225000000	  38.4248000000
O	   2.3386200000	  27.6834000000	  36.8210000000
O	   4.9343100000	  28.1641000000	  36.2912000000
C	   4.1085700000	  28.7544000000	  39.7630000000
C	   1.9071900000	  28.5322000000	  35.7483000000
H	   4.2277400000	  29.6043000000	  40.3941000000
H	   3.2465000000	  28.0995000000	  40.0753000000
H	   5.0199700000	  28.1672000000	  39.9126000000
H	   2.4620900000	  29.4392000000	  35.6339000000
H	   2.0111100000	  28.1475000000	  34.7386000000
H	   0.9251673840	  28.6544000000	  35.8689000000
N	   3.8646300000	  30.7933000000	  32.9182000000
S	   4.4871300000	  31.4816000000	  34.2159000000
O	   3.4845000000	  32.3277000000	  34.8755000000
O	   5.2956100000	  30.5655000000	  34.9512000000
C	   5.7249700000	  32.7344000000	  33.5555000000
F	   6.7336600000	  32.1632000000	  32.9065000000
F	   6.3442100000	  33.4625000000	  34.5032000000
F	   5.1976200000	  33.7210000000	  32.8617000000
S	   3.6666700000	  29.2552000000	  32.6263000000
O	   2.2886300000	  28.9946000000	  32.2618000000
O	   4.3272300000	  28.4487000000	  33.5594000000
C	   4.6673700000	  28.9721000000	  31.1679000000
F	   5.8453000000	  29.5763000000	  31.3566000000
F	   5.0193400000	  27.6246000000	  30.9788000000
F	   4.1541300000	  29.4103000000	  30.0670000000
