64

Li	  17.8918000000	  19.1348000000	  43.2147000000
S	  19.4159000000	  17.0063000000	  45.2770000000
O	  18.4755000000	  16.7968000000	  46.7809000000
O	  19.3808000000	  15.5057000000	  44.3409000000
O	  18.7971000000	  18.0775000000	  44.4564000000
C	  17.1250000000	  16.3787000000	  46.4798000000
C	  19.9739000000	  14.3840000000	  45.0167000000
H	  16.5742000000	  16.3344000000	  47.3621000000
H	  16.6424000000	  17.0849000000	  45.7475000000
H	  17.0454000000	  15.3880000000	  45.9697000000
H	  20.9898000000	  14.6325000000	  45.2043000000
H	  19.5017000000	  14.1989000000	  45.9888000000
H	  20.0384000000	  13.4562000000	  44.3932000000
S	  18.6050000000	  16.3843000000	  41.3450000000
O	  17.4593000000	  15.2898000000	  40.6794000000
O	  19.7465000000	  16.8576000000	  40.1232000000
O	  17.9017000000	  17.5996000000	  41.9518000000
C	  17.1587000000	  14.1723000000	  41.4689000000
C	  20.0205000000	  15.9919000000	  39.0364000000
H	  16.1790000000	  13.9684000000	  41.1646000000
H	  17.9269000000	  13.3840000000	  41.2537000000
H	  17.0809000000	  14.4257000000	  42.5705000000
H	  20.3086000000	  15.0018000000	  39.4378000000
H	  19.1443000000	  15.7284000000	  38.4155000000
H	  20.7256000000	  16.3554000000	  38.3430000000
S	  14.6595000000	  19.1452000000	  42.3028000000
O	  14.5120000000	  19.2400000000	  40.5455000000
O	  14.0691000000	  17.6746000000	  42.8322000000
O	  16.1313000000	  19.1723000000	  42.6725000000
C	  15.7487000000	  19.2531000000	  39.9834000000
C	  14.9940000000	  16.6367000000	  42.7406000000
H	  16.4900000000	  20.0114000000	  40.4106000000
H	  16.1808000000	  18.2903000000	  40.1843000000
H	  15.6320000000	  19.4125000000	  38.8763000000
H	  15.4564000000	  16.5319000000	  41.7380000000
H	  15.8475000000	  16.7473000000	  43.4203000000
H	  14.5852000000	  15.6986000000	  43.0816000000
S	  20.7079000000	  20.7281000000	  42.3228000000
O	  20.6217000000	  21.2595000000	  40.6696000000
O	  20.9247000000	  22.1459000000	  43.2468000000
O	  19.3397000000	  20.2081000000	  42.6440000000
C	  20.0820000000	  20.3319000000	  39.7675000000
C	  21.5310000000	  23.2183000000	  42.5596000000
H	  19.6893000000	  20.8427000000	  38.8807000000
H	  20.8423000000	  19.5348000000	  39.5389000000
H	  19.2587000000	  19.6800000000	  40.2162000000
H	  22.6193000000	  22.9135000000	  42.3378000000
H	  20.9763000000	  23.4755000000	  41.6622000000
H	  21.5966000000	  24.2426000000	  43.0282000000
N	  15.7674000000	  22.2153000000	  45.0208000000
S	  17.2524000000	  21.9546000000	  45.2506000000
O	  17.6207000000	  20.6625000000	  44.7175000000
O	  18.1021000000	  23.0882000000	  45.0371000000
C	  17.3155000000	  21.6601000000	  47.0651000000
F	  16.7485000000	  22.6025000000	  47.7283000000
F	  18.5645000000	  21.5308000000	  47.4422000000
F	  16.6771000000	  20.4828000000	  47.3451000000
S	  15.0064000000	  23.0371000000	  43.9016000000
O	  14.5790000000	  22.3189000000	  42.7267000000
O	  15.4952000000	  24.3667000000	  43.7971000000
C	  13.4123000000	  23.2349000000	  44.7494000000
F	  12.6747000000	  24.2649000000	  44.3043000000
F	  12.6924000000	  22.1229000000	  44.7181000000
F	  13.5439000000	  23.5236000000	  46.0309000000
