36

Li	  26.0190000000	  57.2138000000	  29.9412000000
S	  26.5580000000	  58.0860000000	  26.9650000000
O	  25.0065000000	  57.9945000000	  26.3126000000
O	  26.8860000000	  59.7365124670	  27.3990000000
O	  26.6549000000	  57.3112000000	  28.3077000000
C	  24.3418000000	  59.2434324670	  25.9338000000
C	  27.9320000000	  60.4130524670	  26.6657000000
H	  23.7812000000	  59.7041424670	  26.7806000000
H	  25.0666000000	  60.0033124670	  25.6618000000
H	  23.6265000000	  58.9658224670	  25.1808000000
H	  27.7247000000	  60.4547424670	  25.5941000000
H	  27.8587000000	  61.3513724670	  27.2418000000
H	  28.9727000000	  60.0023924670	  26.7705000000
N	  21.9320000000	  57.0192000000	  27.8868000000
S	  21.3140000000	  55.7737000000	  27.1750000000
O	  21.2741000000	  54.5980000000	  28.0267000000
O	  20.0175000000	  56.0829000000	  26.5328000000
C	  22.4860000000	  55.3987000000	  25.8571000000
F	  23.7955000000	  55.3540000000	  26.2900000000
F	  22.3875000000	  56.2997000000	  24.8834000000
F	  22.2021000000	  54.2591000000	  25.2456000000
S	  22.6557000000	  57.0544000000	  29.2754000000
O	  24.0408000000	  57.4693000000	  29.1923000000
O	  22.2719000000	  55.9908000000	  30.1916000000
C	  21.8836000000	  58.4495000000	  30.1196000000
F	  22.2512000000	  58.5522000000	  31.3941000000
F	  22.2409000000	  59.6952724670	  29.7481000000
F	  20.5671000000	  58.3859000000	  30.0653000000
S	  30.3312000000	  52.5759000000	  25.1504000000
S	  29.3506000000	  54.3385000000	  24.8106000000
S	  28.6020000000	  55.3268000000	  26.5494000000
S	  28.7970000000	  57.7698000000	  30.3997000000
S	  27.6114000000	  56.3618000000	  31.5884000000
S	  25.6803000000	  57.1680000000	  31.9704000000
S	  30.1577000000	  56.7172000000	  29.2829000000
S	  29.6944000000	  56.9236000000	  27.1995000000
