32

Li	  15.3292000000	  43.3664000000	  40.2795000000
O	  14.1799000000	  44.7729000000	  43.8211000000
O	  14.4568000000	  43.5544000000	  42.0070000000
C	  12.9375000000	  44.8205000000	  43.1076000000
C	  13.0867000000	  43.6352000000	  42.1187000000
C	  14.8964000000	  43.7240000000	  43.3220000000
H	  12.1562000000	  44.5490000000	  43.7961000000
H	  12.7530000000	  45.7130000000	  42.4661000000
H	  12.6838000000	  42.7009000000	  42.4347000000
H	  12.7047000000	  43.9106000000	  41.1046000000
H	  16.0035000000	  43.8819000000	  43.1668000000
H	  14.7202000000	  42.8814000000	  43.9649000000
S	  18.1232000000	  41.9142000000	  40.9587000000
O	  17.6259000000	  40.3139000000	  40.9979000000
O	  18.9962000000	  42.1073000000	  39.4685000000
O	  16.8565000000	  42.8254000000	  40.9361000000
C	  17.3942000000	  39.7633000000	  42.2721000000
C	  18.7953000000	  41.1019000000	  38.4870000000
H	  18.3957000000	  39.6879000000	  42.6769000000
H	  16.6996000000	  40.3313000000	  42.8604000000
H	  17.0377000000	  38.7366000000	  42.2062000000
H	  19.4755000000	  40.3239000000	  38.8021000000
H	  17.7674000000	  40.8786000000	  38.5829000000
H	  18.9253000000	  41.3991000000	  37.4398000000
S	  15.2593000000	  45.4052000000	  39.0826000000
S	  14.1722000000	  46.6592000000	  40.3865000000
S	  12.3839000000	  47.3431000000	  39.5525000000
S	  11.2963000000	  42.7160000000	  39.0873000000
S	  13.1514000000	  42.4694000000	  37.9893000000
S	  14.6196000000	  41.5723000000	  39.3121000000
S	  10.3853000000	  44.5772000000	  38.6968000000
S	  10.8363000000	  46.0739000000	  40.1549000000
