39

Li	  50.1168000000	  51.5267000000	   1.6920400000
O	  50.3943000000	  51.7719000000	  -0.3440611863
O	  50.4966000000	  51.6107000000	  -2.5749611863
C	  49.3213000000	  52.5105000000	  -0.9155611863
C	  49.1879000000	  51.9330000000	  -2.3207611863
C	  51.0349000000	  51.1797000000	  -1.3783611863
H	  48.3502000000	  52.5106000000	  -0.3318611863
H	  49.7173000000	  53.5183000000	  -0.9473611863
H	  48.5653000000	  51.0580000000	  -2.1776611863
H	  48.7109000000	  52.6064000000	  -3.0143611863
H	  52.1314000000	  51.4506000000	  -1.4265611863
H	  50.9254000000	  50.0871000000	  -1.4072611863
S	  47.9314000000	  53.2394000000	   3.7298800000
O	  48.7551000000	  53.9277000000	   5.0277300000
O	  47.2751000000	  54.5171000000	   2.8321700000
O	  49.0256000000	  52.6550000000	   2.8309800000
C	  49.6672000000	  53.0146000000	   5.6852600000
C	  46.1139000000	  54.0582000000	   2.1203200000
H	  49.3700000000	  51.9768000000	   5.6906900000
H	  50.6354000000	  52.9985000000	   5.2042000000
H	  49.9361000000	  53.3477000000	   6.7296900000
H	  45.6483000000	  54.9558000000	   1.8801100000
H	  46.3776000000	  53.4137000000	   1.2918400000
H	  45.5194000000	  53.4714000000	   2.7968600000
N	  46.3875000000	  49.7130000000	   2.9924600000
S	  47.9325000000	  49.4544000000	   2.9460500000
O	  48.5010000000	  50.0668000000	   1.7805000000
O	  48.6067000000	  49.6741000000	   4.2184800000
C	  48.0934000000	  47.5999000000	   2.7109300000
F	  47.3642000000	  47.1929000000	   1.6362300000
F	  47.7061000000	  46.9153000000	   3.7769500000
F	  49.3667000000	  47.2275000000	   2.3930600000
S	  45.4635000000	  49.9776000000	   4.2044600000
O	  44.9857000000	  51.3360000000	   4.2454000000
O	  45.7959000000	  49.2614000000	   5.4129700000
C	  44.0730000000	  49.0326000000	   3.5388000000
F	  43.7760000000	  49.4207000000	   2.3194600000
F	  44.4508000000	  47.7632000000	   3.5267400000
F	  42.9467000000	  49.1454000000	   4.2486000000
