41

Li	  17.7298000000	  20.6360000000	   5.6940400000
S	  14.7254000000	  22.0433000000	   5.7339400000
O	  14.8362000000	  23.6542000000	   6.4191000000
O	  14.3712000000	  22.1479000000	   4.0464800000
O	  16.1782000000	  21.5588000000	   5.8302400000
C	  16.0438000000	  24.3259000000	   6.0413500000
C	  14.1250000000	  20.8908000000	   3.3615000000
H	  15.9829000000	  25.3973000000	   6.2875800000
H	  16.8947000000	  23.9341000000	   6.5316500000
H	  16.1186000000	  24.2107000000	   5.0034500000
H	  13.3104000000	  20.3046000000	   3.8225500000
H	  13.8326000000	  20.9798000000	   2.2817700000
H	  15.0686000000	  20.3039000000	   3.5172500000
S	  19.2097000000	  23.0366000000	   3.9701200000
O	  18.5080000000	  22.8689000000	   2.4466100000
O	  18.7571000000	  24.5067000000	   4.7076000000
O	  18.6380000000	  21.9939000000	   4.9080100000
C	  17.5856000000	  21.8431000000	   2.3635300000
C	  19.4462000000	  24.7341000000	   5.9478100000
H	  17.2600000000	  21.9476000000	   1.3334000000
H	  18.0420000000	  20.8545000000	   2.4864400000
H	  16.7844000000	  22.1210000000	   3.0469500000
H	  19.5647000000	  23.8799000000	   6.5363200000
H	  20.3967000000	  25.2292000000	   5.8091500000
H	  18.7634000000	  25.4747000000	   6.4564200000
S	  21.1226000000	  10.0509000000	  10.3868000000
S	  20.5915000000	  10.6244000000	   8.4031700000
S	  21.3789000000	  12.4369000000	   7.6244000000
S	  19.6359000000	  17.4973000000	   7.2726500000
S	  19.0530000000	  18.9916000000	   8.5836700000
S	  18.9826000000	  20.7251000000	   7.5683600000
S	  20.7333000000	  15.9732000000	   8.2160500000
S	  20.0060000000	  13.9696000000	   7.8463700000
S	  17.4524000000	  18.8083000000	   4.6063200000
S	  16.3182000000	  18.3195000000	   6.3762800000
S	  14.2692000000	  18.1612000000	   6.0268900000
S	  10.4879000000	  20.7316000000	   8.9752500000
S	   8.8860000000	  20.7888000000	   7.7021100000
S	   8.0171300000	  22.7048000000	   7.6800300000
S	  12.2280000000	  20.4772000000	   7.8362100000
S	  13.0342000000	  18.5721000000	   7.6617800000
