47

Li	  42.9453000000	  32.5692000000	  55.0507000000
O	  44.6331000000	  31.8428000000	  54.4805000000
O	  45.8543000000	  30.5228000000	  53.1545000000
C	  45.6306000000	  31.2481000000	  55.3190000000
C	  46.2255000000	  30.1672000000	  54.4841000000
C	  45.2496000000	  31.7674000000	  53.2601000000
H	  46.3961000000	  32.0036000000	  55.6995000000
H	  45.1798000000	  30.8603000000	  56.1745000000
H	  47.2746000000	  30.0273000000	  54.6761000000
H	  45.7726000000	  29.1900000000	  54.6876000000
H	  44.5544000000	  31.9179000000	  52.4580000000
H	  46.0425000000	  32.5029000000	  53.1886000000
O	  40.3779000000	  34.5719000000	  52.6436000000
O	  41.4795000000	  33.3440000000	  54.1451000000
C	  39.3841000000	  33.8147000000	  53.3564000000
C	  40.1526000000	  33.4372000000	  54.5856000000
C	  41.6261000000	  34.1081000000	  53.0278000000
H	  38.4050000000	  34.4262000000	  53.5312000000
H	  39.0509000000	  32.9339000000	  52.7720000000
H	  40.0657000000	  34.2664000000	  55.2833000000
H	  39.7500000000	  32.5309000000	  55.0203000000
H	  42.1667000000	  33.5810000000	  52.2159000000
H	  42.1748000000	  34.9154000000	  53.5192000000
S	  43.8421000000	  34.3989000000	  57.8625000000
O	  43.0889000000	  35.9363000000	  57.9762000000
O	  43.1792000000	  33.4408000000	  59.1671911863
O	  43.5216000000	  33.7066000000	  56.5050000000
C	  42.5676000000	  36.4848000000	  56.8069000000
C	  43.4513000000	  33.9166000000	  60.4481511863
H	  41.6257000000	  36.0509000000	  56.6015000000
H	  42.4424000000	  37.5637000000	  56.9935000000
H	  43.2660000000	  36.3661000000	  55.9685000000
H	  43.1475000000	  33.2722000000	  61.2594911863
H	  44.4502000000	  34.2747000000	  60.5255811863
H	  42.9486000000	  34.8935000000	  60.5321811863
S	  41.6664000000	  30.8710000000	  57.4384000000
O	  40.6181000000	  32.1915000000	  57.6241000000
O	  40.7573000000	  29.5388000000	  56.8300000000
O	  42.6540000000	  31.2732000000	  56.3289000000
C	  40.0160000000	  32.3454000000	  58.8922000000
C	  39.6679000000	  29.0167000000	  57.6704000000
H	  39.1407000000	  33.0217000000	  58.8856000000
H	  39.6219000000	  31.3815000000	  59.2776411863
H	  40.6660000000	  32.7832000000	  59.6411711863
H	  39.2075000000	  28.1848000000	  57.1865000000
H	  40.0811000000	  28.7188000000	  58.6087000000
H	  38.8025000000	  29.6736000000	  57.9170000000
