59

Li	  50.1767000000	  19.4322000000	  29.1009000000
O	  49.9339000000	  19.8320000000	  27.0363000000
O	  48.0816000000	  20.2200000000	  25.7953000000
C	  50.2504000000	  21.0022000000	  26.3594000000
C	  49.0017000000	  21.2753000000	  25.4704000000
C	  48.8626000000	  19.2422000000	  26.3661000000
H	  50.4731000000	  21.8458000000	  27.0033000000
H	  51.1472000000	  20.8069000000	  25.7408000000
H	  48.8410000000	  22.3624000000	  25.5310000000
H	  49.2832000000	  21.0520000000	  24.4572000000
H	  49.1457000000	  18.3749000000	  25.6875000000
H	  48.2570000000	  18.7689000000	  27.1667000000
O	  49.6168000000	  18.7560000000	  33.1377000000
O	  50.4811000000	  19.5021000000	  31.1949000000
C	  50.8501000000	  18.1705000000	  33.1117000000
C	  51.5464000000	  18.8142000000	  31.8628000000
C	  49.3312000000	  18.9800000000	  31.8426000000
H	  51.4844000000	  18.3286000000	  33.9863000000
H	  50.8545000000	  17.0901000000	  32.8993000000
H	  52.3008000000	  19.5681000000	  32.1011000000
H	  52.0580000000	  18.1046000000	  31.2253000000
H	  48.9821000000	  18.0579000000	  31.2944000000
H	  48.5901000000	  19.7081000000	  31.6202000000
S	  49.6704000000	  16.2095000000	  29.0395000000
O	  48.0855000000	  16.0528000000	  29.6499000000
O	  49.6700000000	  15.9951000000	  27.3353000000
O	  50.0448000000	  17.6527000000	  29.2205000000
C	  47.5249000000	  14.7363000000	  29.4634000000
C	  50.2916000000	  14.7937000000	  26.9287000000
H	  46.4978000000	  14.9083000000	  29.2307000000
H	  47.9949000000	  14.1521000000	  28.6967000000
H	  47.5968000000	  14.1567000000	  30.3685000000
H	  49.6105000000	  13.9640000000	  26.8881000000
H	  50.8028000000	  14.8999000000	  25.9339000000
H	  51.0313000000	  14.5235000000	  27.6567000000
S	  47.1354000000	  21.0514000000	  29.3652000000
O	  47.0056000000	  22.4285000000	  30.4192000000
O	  46.9202000000	  21.6086000000	  27.7506000000
O	  48.5865000000	  20.5228000000	  29.3373000000
C	  48.1206000000	  23.2470000000	  30.4105000000
C	  45.9588000000	  22.6805000000	  27.6056000000
H	  48.9799000000	  22.6231000000	  30.6331000000
H	  48.4609000000	  23.8862000000	  29.5716000000
H	  48.0337000000	  23.9466000000	  31.2894000000
H	  44.8956000000	  22.4326000000	  27.7328000000
H	  46.0251000000	  23.3955000000	  28.4072000000
H	  46.0877000000	  23.2627000000	  26.7147000000
S	  53.3339000000	  19.2546000000	  28.2761000000
O	  53.8993000000	  17.6765000000	  28.7294000000
O	  52.9227000000	  19.1994000000	  26.6115000000
O	  52.0186000000	  19.7069000000	  28.9793000000
C	  55.2703000000	  17.5480000000	  28.8698000000
C	  52.4019000000	  17.9291000000	  26.2381000000
H	  55.6458000000	  18.2514000000	  29.6388000000
H	  55.5154000000	  16.5141000000	  29.2058000000
H	  55.8704000000	  17.6468000000	  27.9834000000
H	  53.0234000000	  17.1083000000	  26.5301000000
H	  51.3546000000	  17.6555000000	  26.5238000000
H	  52.3620000000	  17.8922000000	  25.1625000000
