52

Li	  22.1903000000	  53.4356000000	  31.7693000000
S	  19.1855000000	  54.6764000000	  32.6053000000
O	  19.5056000000	  56.2253000000	  33.1717000000
O	  18.5246000000	  54.7880000000	  31.0241000000
O	  20.5398000000	  53.9101000000	  32.4116000000
C	  19.9735000000	  56.3399000000	  34.4434000000
C	  17.3706000000	  54.0962000000	  30.9346000000
H	  20.1673000000	  57.3048000000	  34.7696000000
H	  19.3305000000	  55.8493000000	  35.1550000000
H	  20.9368000000	  55.9525000000	  34.4735000000
H	  16.5865000000	  54.8171000000	  31.1472000000
H	  17.1192000000	  53.7704000000	  29.9490000000
H	  17.2952000000	  53.1126000000	  31.4004000000
S	  24.5543000000	  55.1118000000	  33.3381000000
O	  26.1819000000	  54.6016000000	  33.1089000000
O	  24.3302000000	  56.6238000000	  32.6017000000
O	  23.6207000000	  54.0902000000	  32.6563000000
C	  26.4227000000	  53.3365000000	  32.6556000000
C	  23.2214000000	  56.6696000000	  31.7621000000
H	  27.4866000000	  53.2858000000	  32.5744000000
H	  25.9731000000	  52.5583000000	  33.2861000000
H	  25.9524000000	  53.2204000000	  31.6368000000
H	  23.0773000000	  57.6907000000	  31.4445000000
H	  23.5325000000	  55.9671000000	  30.9406000000
H	  22.2400000000	  56.3116000000	  32.1861000000
S	  23.2625000000	  50.2975000000	  31.3833000000
O	  24.1027000000	  49.7644000000	  32.8152000000
O	  22.0293000000	  49.1816000000	  30.9860000000
O	  22.6224000000	  51.6336000000	  31.7021000000
C	  23.6734000000	  50.4465000000	  34.0136000000
C	  21.5978000000	  49.2077000000	  29.6338000000
H	  22.6069000000	  50.6256000000	  34.0959000000
H	  23.9191000000	  49.8123000000	  34.9041000000
H	  24.2246000000	  51.3090000000	  34.1820000000
H	  22.3661000000	  49.0553000000	  28.8894000000
H	  20.9280000000	  48.3984000000	  29.3581000000
H	  21.2082000000	  50.1903000000	  29.3557000000
N	  23.5733000000	  54.3449000000	  27.7221000000
S	  22.8404000000	  53.2497000000	  28.5632000000
O	  23.1733000000	  51.9246000000	  28.2233000000
O	  22.6538000000	  53.5988000000	  29.9534000000
C	  21.1770000000	  53.3438000000	  27.8776000000
F	  21.1544000000	  52.9717000000	  26.5361000000
F	  20.6405000000	  54.5516000000	  27.9889000000
F	  20.3570000000	  52.4987000000	  28.4866000000
S	  24.7631000000	  55.2166000000	  28.1857000000
O	  25.5833000000	  54.5678000000	  29.1726000000
O	  24.3539000000	  56.6111000000	  28.3439000000
C	  25.6688000000	  55.2740000000	  26.5982000000
F	  26.7456000000	  55.9806000000	  26.7769000000
F	  25.9673000000	  54.0792000000	  26.0891000000
F	  24.9916000000	  55.9037000000	  25.6017000000
