47

Li	  48.9547000000	  16.9848000000	  31.1003000000
O	  49.0703000000	  16.1689000000	  33.1968000000
O	  48.4866000000	  15.4886000000	  35.2949000000
C	  49.6633000000	  17.0169000000	  34.1421000000
C	  49.7284000000	  16.1018000000	  35.3069000000
C	  48.0942000000	  15.5105000000	  33.9101000000
H	  50.6936000000	  17.2977000000	  33.9355000000
H	  49.0677000000	  17.8772000000	  34.3371000000
H	  50.4168000000	  15.3540000000	  35.0359000000
H	  50.0589000000	  16.6233000000	  36.2047000000
H	  47.1757000000	  16.0593000000	  33.9740000000
H	  47.8563000000	  14.4982000000	  33.4971000000
O	  45.9732000000	  15.9777000000	  29.1495000000
O	  47.1047000000	  16.4014000000	  31.0412000000
C	  45.8036000000	  17.2791000000	  29.5861000000
C	  45.9574000000	  17.1539000000	  31.0068000000
C	  46.9039000000	  15.4631000000	  30.0769000000
H	  46.5447000000	  17.9495000000	  29.2642000000
H	  44.8424000000	  17.7893000000	  29.5454000000
H	  46.0371000000	  18.1289000000	  31.5201000000
H	  45.1759000000	  16.5562000000	  31.4740000000
H	  46.5000000000	  14.5564000000	  30.4726000000
H	  47.8574000000	  15.0474000000	  29.6147000000
S	  50.5295000000	  14.2287000000	  31.2515000000
O	  49.2117000000	  13.2215000000	  31.7312000000
O	  51.4495000000	  13.2642000000	  30.1185000000
O	  49.9880000000	  15.5217000000	  30.6027000000
C	  49.6193000000	  12.1614000000	  32.6042000000
C	  52.0850000000	  14.1629000000	  29.1681000000
H	  48.8132000000	  11.4889000000	  32.5824000000
H	  50.5498000000	  11.6906000000	  32.2431000000
H	  49.7691000000	  12.5717000000	  33.6287000000
H	  52.8841000000	  14.7114000000	  29.7648000000
H	  52.5032000000	  13.4672000000	  28.4239000000
H	  51.2862000000	  14.8204000000	  28.7641000000
S	  49.9073000000	  19.3348000000	  30.9111000000
O	  49.4010000000	  20.2242000000	  32.3241000000
O	  50.9287000000	  18.0914000000	  31.4991000000
O	  48.7171000000	  18.6171000000	  30.4120000000
C	  48.1224000000	  20.7624000000	  32.2960000000
C	  52.1687000000	  18.2196000000	  30.9548000000
H	  47.3254000000	  20.0390000000	  32.1581000000
H	  47.9041000000	  21.4106000000	  33.1175000000
H	  48.0706000000	  21.4567000000	  31.4629000000
H	  52.5929000000	  19.0321000000	  31.5783000000
H	  52.6651000000	  17.2855000000	  31.1439000000
H	  52.2740000000	  18.6367000000	  29.9327000000
