63

Li	   3.1795600000	  50.6375000000	  38.2688000000
O	   2.7334900000	  53.2086000000	  35.5040000000
O	   3.8432700000	  51.8373000000	  36.9120000000
C	   3.5058600000	  52.3887000000	  34.6572000000
C	   3.7549700000	  51.2401000000	  35.5976000000
C	   3.3846300000	  53.1511000000	  36.6757000000
H	   2.8544200000	  52.2437000000	  33.8412000000
H	   4.4902400000	  52.8400000000	  34.3218000000
H	   2.7591700000	  50.7131000000	  35.4878000000
H	   4.6095800000	  50.6323000000	  35.3445000000
H	   4.1853800000	  53.9016000000	  36.6512000000
H	   2.7164100000	  53.3789000000	  37.5155000000
S	   4.0156700000	  52.7744000000	  40.9348000000
O	   4.5883700000	  52.2835000000	  42.4779000000
O	   5.2203600000	  53.5091000000	  39.9783000000
O	   3.3813600000	  51.5739000000	  40.2344000000
C	   4.7627500000	  50.8859000000	  42.6758000000
C	   5.8567600000	  54.5659000000	  40.6198000000
H	   3.7867100000	  50.4299000000	  42.6639000000
H	   5.4560900000	  50.5052000000	  41.8418000000
H	   5.2812400000	  50.6958000000	  43.6062000000
H	   5.0946200000	  55.2774000000	  40.9742000000
H	   6.4025900000	  54.2221000000	  41.4579000000
H	   6.5158600000	  55.1822000000	  39.9859000000
S	   1.9441500000	  47.9807000000	  36.7505000000
O	   2.5445900000	  48.0530000000	  35.1408000000
O	   2.8427800000	  46.7900000000	  37.5498000000
O	   2.1009100000	  49.3383000000	  37.4046000000
C	   2.2738800000	  46.9664000000	  34.3349000000
C	   2.1615900000	  46.1184000000	  38.5602000000
H	   1.2061200000	  46.9735000000	  34.0617000000
H	   2.7736600000	  47.0193000000	  33.4005000000
H	   2.5514700000	  46.0200000000	  34.7765000000
H	   1.9035700000	  46.8353000000	  39.3098000000
H	   1.2779200000	  45.5616000000	  38.2109000000
H	   2.7992100000	  45.4037000000	  39.0702000000
S	   6.1774000000	  49.3112000000	  38.8025000000
O	   6.8430400000	  48.8277000000	  37.2878000000
O	   6.5091100000	  50.8996000000	  39.1829000000
O	   4.6629000000	  49.1743000000	  38.7531000000
C	   6.0733500000	  47.9021000000	  36.6219000000
C	   7.1638100000	  51.6170000000	  38.1858000000
H	   5.3388500000	  48.5520000000	  36.1374000000
H	   6.6233900000	  47.4968000000	  35.7492000000
H	   5.7885700000	  47.0622000000	  37.2738000000
H	   8.0238000000	  51.0859000000	  38.0607000000
H	   6.6743300000	  51.8279000000	  37.3108000000
H	   7.4939300000	  52.5985000000	  38.6057000000
N	  -0.4823326160	  53.1972000000	  39.5547000000
S	   0.3786673840	  54.2084000000	  40.3537000000
O	   0.6725673840	  53.7310000000	  41.6814000000
O	   1.4696800000	  54.7611000000	  39.5684000000
C	  -0.6560326160	  55.6931000000	  40.6465000000
F	  -1.7003326160	  55.4730000000	  41.4532000000
F	  -1.2101326160	  56.2628000000	  39.5571000000
F	   0.1047673840	  56.6183000000	  41.2344000000
S	  -0.0910326160	  52.3169000000	  38.3609000000
O	   1.2341300000	  51.7156000000	  38.5582000000
O	  -0.4198326160	  52.9208000000	  37.0631000000
C	  -1.2878326160	  50.9668000000	  38.3862000000
F	  -1.2526326160	  50.1249000000	  37.3910000000
F	  -1.1502326160	  50.3685000000	  39.5560000000
F	  -2.4979326160	  51.4131000000	  38.3153000000
