21

Li	  52.5846000000	  14.3939000000	  36.1620000000
S	  55.1839000000	  13.3436000000	  37.6878000000
O	  55.4529000000	  14.6540000000	  38.6550000000
O	  55.3873000000	  11.9103000000	  38.6006000000
O	  53.7112000000	  13.4477000000	  37.2051000000
C	  56.7852000000	  14.8263000000	  39.1774000000
C	  54.7260000000	  10.8195000000	  38.0886000000
H	  57.5466000000	  14.6630000000	  38.4001000000
H	  56.9433000000	  15.7608000000	  39.5894000000
H	  56.9876000000	  14.1138000000	  39.9756000000
H	  55.0115000000	  10.5854000000	  37.0220000000
H	  54.9920000000	   9.9415700000	  38.7089000000
H	  53.7093000000	  10.9621000000	  38.1164000000
S	  51.7178000000	  13.4894000000	  34.5905000000
S	  51.5159000000	  11.7744000000	  35.8245000000
S	  50.3842000000	  12.3372000000	  37.4721000000
S	  52.6681000000	  16.2357000000	  39.3798000000
S	  52.3030000000	  17.4564000000	  37.6651000000
S	  53.2800000000	  16.7301000000	  35.8885000000
S	  51.0375000000	  14.8838000000	  39.7093000000
S	  51.4328000000	  12.8565000000	  39.2101000000
