33

Li	  55.6643000000	  33.5571000000	  34.8534000000
S	  53.0134000000	  32.1118000000	  36.1393000000
O	  53.4625000000	  30.4676000000	  35.8774000000
O	  52.7136000000	  32.4605000000	  37.7627000000
O	  54.1983000000	  33.0113000000	  35.6419000000
C	  52.2904000000	  29.6648000000	  35.5382000000
C	  52.8923000000	  31.3695000000	  38.6422000000
H	  51.4753000000	  29.8579000000	  36.3152000000
H	  51.9443000000	  30.0145000000	  34.5877000000
H	  52.4654000000	  28.6388000000	  35.5663000000
H	  52.5268000000	  31.6966000000	  39.5831000000
H	  52.2816000000	  30.5724000000	  38.2415000000
H	  53.9857000000	  31.1465000000	  38.7021000000
S	  57.3549000000	  31.6219000000	  36.8142000000
O	  56.4379000000	  32.4877000000	  37.9372000000
O	  56.5332000000	  31.7580000000	  35.3069000000
O	  58.6908000000	  32.3417000000	  36.5815000000
C	  57.0938000000	  33.6685000000	  38.3282000000
C	  56.8101000000	  30.8060000000	  34.3234000000
H	  58.0701000000	  33.3474000000	  38.7345000000
H	  57.2275000000	  34.2796000000	  37.4334000000
H	  56.6016000000	  34.3533000000	  39.0271000000
H	  56.0773000000	  30.9192000000	  33.5603000000
H	  57.8048000000	  30.8617000000	  33.9012000000
H	  56.6521000000	  29.8350000000	  34.8369000000
S	  57.4860000000	  34.6885000000	  34.6347000000
S	  56.2561000000	  34.9219000000	  32.7911000000
S	  57.1247000000	  33.7551000000	  31.1821000000
S	  53.0369000000	  30.5801000000	  29.4633000000
S	  51.3585000000	  30.2223000000	  30.8280000000
S	  49.7385000000	  29.1330000000	  29.9612000000
S	  54.1912000000	  32.3239000000	  29.7756000000
S	  56.0167000000	  31.9742000000	  30.8834000000
