43

Li	  36.9783000000	  17.3706000000	  31.0371000000
O	  35.3248000000	  21.1499000000	  30.4421000000
O	  36.2594000000	  19.0702000000	  30.4047000000
C	  36.6022000000	  21.2846000000	  29.8975000000
C	  36.7535000000	  19.8800000000	  29.3737000000
C	  35.1641000000	  19.7928000000	  30.7795000000
H	  36.7256000000	  22.0049000000	  29.0680000000
H	  37.2876000000	  21.7033000000	  30.6332000000
H	  36.2241000000	  19.6168000000	  28.4139000000
H	  37.7934000000	  19.6405000000	  29.1615000000
H	  34.9211000000	  19.5883000000	  31.8251000000
H	  34.3852000000	  19.3025000000	  30.2527000000
N	  35.2179000000	  16.9547000000	  27.7395000000
S	  33.8847000000	  16.6631000000	  26.9794000000
O	  34.0936000000	  16.1451000000	  25.6186000000
O	  32.8899000000	  16.0236000000	  27.8082000000
C	  33.1277000000	  18.3509000000	  26.7570000000
F	  32.0904000000	  18.2835000000	  25.9758000000
F	  34.0520000000	  19.0715000000	  26.2400000000
F	  32.7550000000	  18.9844000000	  27.8966000000
S	  36.3527000000	  15.8823000000	  28.0699000000
O	  36.0873000000	  14.5089000000	  27.7616000000
O	  37.0435000000	  16.3326000000	  29.2380000000
C	  37.5977000000	  16.2060000000	  26.7778000000
F	  37.0599000000	  16.3657000000	  25.5675000000
F	  38.3549000000	  17.2216000000	  27.0867000000
F	  38.4436000000	  15.1750000000	  26.6252000000
S	  35.2176000000	  16.3903000000	  31.9602000000
S	  34.4691000000	  16.8513000000	  33.9307000000
S	  36.0297000000	  17.0583000000	  35.2689000000
S	  36.0676000000	  18.8447000000	  39.5079000000
S	  34.9685000000	  19.4241000000	  41.2408000000
S	  33.7778000000	  17.8374000000	  42.1195000000
S	  35.0508000000	  19.3643000000	  37.7162000000
S	  36.2890000000	  19.0406000000	  35.9986000000
S	  38.5373000000	  17.1255000000	  32.1541000000
S	  39.9905000000	  15.9988000000	  31.0781000000
S	  40.6691000000	  16.8974000000	  29.3026000000
S	  40.6939000000	  21.2233000000	  30.1226000000
S	  41.1167000000	  23.2184000000	  30.0726000000
S	  39.5396000000	  24.3235000000	  29.1507000000
S	  41.9750000000	  20.1203000000	  28.9296000000
S	  42.3969000000	  18.1790000000	  29.7363000000
