44

Li	  25.5330000000	  57.0189000000	  55.9289000000
O	  24.2200000000	  53.4430000000	  54.9322000000
O	  24.9822000000	  55.5606000000	  54.7566000000
C	  24.7568000000	  53.5409000000	  53.6359000000
C	  25.3406000000	  54.9158000000	  53.5043000000
C	  23.9277000000	  54.7374000000	  55.2778000000
H	  25.5866000000	  52.8582000000	  53.6511000000
H	  23.9528000000	  53.3862000000	  52.9862000000
H	  26.4846000000	  54.9451000000	  53.3280000000
H	  24.8333000000	  55.4968000000	  52.7711000000
H	  22.9706000000	  55.1557000000	  54.9097000000
H	  23.7633000000	  54.7825000000	  56.3113000000
S	  25.7951000000	  56.7397000000	  58.9800111863
O	  26.1841000000	  58.4531000000	  59.0556011863
O	  24.0973000000	  56.4739000000	  59.2496911863
O	  26.0606000000	  56.2470000000	  57.5253000000
C	  27.5196000000	  58.8349000000	  59.3740311863
C	  23.7784000000	  55.8038000000	  60.4946811863
H	  27.6303000000	  59.6355624670	  60.1557711863
H	  28.0808000000	  57.9422000000	  59.6284511863
H	  27.9498000000	  59.3039724670	  58.4520000000
H	  24.2776000000	  54.8167000000	  60.5427011863
H	  24.2693000000	  56.2336000000	  61.3537811863
H	  22.7011000000	  55.7795000000	  60.6717111863
S	  22.5025000000	  58.3515000000	  55.7953000000
O	  21.3827000000	  57.2063000000	  55.3010000000
O	  21.8365000000	  59.3193324670	  57.0510000000
O	  23.7744000000	  57.6645000000	  56.2861000000
C	  20.9264000000	  57.4271000000	  53.9885000000
C	  22.6267000000	  59.4456424670	  58.1112000000
H	  21.5755000000	  57.1478000000	  53.1551000000
H	  20.1378000000	  56.6813000000	  53.9382000000
H	  20.5381000000	  58.4414000000	  53.7544000000
H	  22.9335000000	  58.4636000000	  58.5876000000
H	  23.5350000000	  59.9885024670	  57.9138000000
H	  22.2599000000	  60.0338524670	  58.9612511863
S	  28.4437000000	  58.4623000000	  45.9165000000
S	  26.5488000000	  59.5458224670	  46.1359000000
S	  26.2085000000	  60.1040224670	  48.1470000000
S	  24.9984000000	  58.4576000000	  52.4250000000
S	  26.5050000000	  59.2604524670	  53.5736000000
S	  27.0490000000	  58.1511000000	  55.2776000000
S	  25.4487000000	  57.6833000000	  50.4914000000
S	  24.6520000000	  58.9118524670	  48.9677000000
