41

Li	  22.8387000000	  12.6995000000	  36.4283000000
S	  26.1846000000	  13.4640000000	  36.0984000000
O	  24.6508000000	  13.1930000000	  35.4359000000
O	  25.9924000000	  14.4976000000	  37.4832000000
O	  26.7920000000	  12.1591000000	  36.6715000000
C	  24.3790000000	  14.2092000000	  34.4936000000
C	  26.0321000000	  13.7867000000	  38.7547000000
H	  23.4079000000	  14.1546000000	  34.0119000000
H	  24.6047000000	  15.1847000000	  35.0015000000
H	  25.0702000000	  14.1447000000	  33.6416000000
H	  25.1044000000	  13.1015000000	  38.9578000000
H	  26.9344000000	  13.2433000000	  38.8510000000
H	  25.9707000000	  14.5459000000	  39.5357000000
S	  22.8114000000	  15.6050000000	  38.0299000000
O	  22.9173000000	  16.5901000000	  36.6458000000
O	  21.3273000000	  15.8991000000	  38.7939000000
O	  22.8462000000	  14.1423000000	  37.5922000000
C	  23.9433000000	  17.4668000000	  36.7332000000
C	  21.4347000000	  16.9347000000	  39.7927000000
H	  23.9721000000	  18.0158000000	  35.7947000000
H	  23.7521000000	  18.1364000000	  37.5922000000
H	  24.8314000000	  16.9601000000	  36.9909000000
H	  21.8898000000	  16.4873000000	  40.6284000000
H	  21.9907000000	  17.7583000000	  39.3548000000
H	  20.4289000000	  17.2072000000	  40.0478000000
S	  20.8369000000	  12.3469000000	  35.6456000000
S	  20.9257000000	  11.8730000000	  33.6456000000
S	  19.0596000000	  10.9758000000	  33.0973000000
S	  17.0429000000	   6.7747100000	  31.4944000000
S	  15.1260000000	   5.7786400000	  31.3745000000
S	  15.1258000000	   3.8078900000	  32.2005000000
S	  17.1708000000	   8.1655500000	  33.0679000000
S	  19.1329000000	   8.9461700000	  33.3780000000
S	  22.6846000000	   0.7416175330	  36.9955000000
S	  21.0029000000	   1.6055200000	  36.0660000000
S	  21.4379000000	   3.4436300000	  35.2599000000
S	  23.5681000000	   7.7399700000	  35.7143000000
S	  24.0648000000	   8.7935300000	  37.4892000000
S	  23.8021000000	  10.9146000000	  37.5164000000
S	  21.6062000000	   6.9215800000	  35.6097000000
S	  21.4485000000	   5.0269300000	  36.5977000000
