28

Li	  27.9366000000	  45.5001000000	  59.3185000000
O	  28.2244000000	  44.3285000000	  57.8656000000
O	  28.7234000000	  43.8061000000	  55.7754000000
C	  29.3237000000	  43.3776000000	  57.9322000000
C	  29.4204000000	  42.9158000000	  56.5130000000
C	  28.3757000000	  44.8540000000	  56.5875000000
H	  30.2184000000	  43.8931000000	  58.2591000000
H	  29.0307000000	  42.6611000000	  58.6737000000
H	  30.4331000000	  42.9490000000	  56.1262000000
H	  28.9861000000	  41.9055000000	  56.5627000000
H	  27.4625000000	  45.4154000000	  56.3304000000
H	  29.1113000000	  45.6647000000	  56.7162000000
S	  25.9297000000	  45.2739000000	  60.0072616609
S	  24.3195000000	  45.3135000000	  58.7005000000
S	  23.9699000000	  47.2317000000	  58.1068000000
S	  28.0325000000	  48.2654000000	  56.0998000000
S	  28.7687000000	  48.2173000000	  54.1328000000
S	  30.4473000000	  49.3553000000	  53.8850000000
S	  26.1097000000	  49.1513000000	  56.2322000000
S	  24.5656000000	  47.6640000000	  56.2098000000
S	  29.0121000000	  47.3484000000	  59.7209256609
S	  28.8326000000	  46.4063000000	  61.5434386609
S	  29.2377000000	  44.3999000000	  61.1760186609
S	  25.6887000000	  42.0530000000	  63.8015486609
S	  24.0707000000	  41.8336000000	  62.5262886609
S	  22.4235000000	  40.9134000000	  63.4880686609
S	  27.5388000000	  41.5431000000	  62.8098086609
S	  29.0913000000	  43.0995000000	  62.9403486609
