28

Li	  45.8645000000	   0.7927670000	  17.1051000000
O	  44.6183000000	   1.1714900000	  15.5241000000
O	  43.2763000000	   2.8841800000	  16.1102000000
C	  43.3583000000	   0.6012220000	  15.4904000000
C	  42.5817000000	   1.6741900000	  16.3099000000
C	  44.4367000000	   2.5585200000	  15.4534000000
H	  42.9539000000	   0.6608870000	  14.4843000000
H	  43.2310000000	  -0.4093486609	  15.9320000000
H	  41.5287000000	   1.7765100000	  15.9943000000
H	  42.5295000000	   1.4985400000	  17.3739000000
H	  45.2530000000	   3.1297700000	  15.9063000000
H	  44.4368000000	   2.9322600000	  14.3997000000
S	  47.9111000000	   5.3642300000	  17.8748000000
S	  47.3118000000	   6.9534400000	  16.5126000000
S	  45.9194000000	   6.4215000000	  15.0660000000
S	  48.4546000000	   2.6599000000	  13.4001000000
S	  48.3542000000	   2.1617900000	  15.4847000000
S	  47.6015000000	   0.2184513391	  15.9548000000
S	  46.7007000000	   3.8413600000	  12.8845000000
S	  46.8700000000	   5.9397700000	  13.2649000000
S	  45.9103000000	   2.3434100000	  18.5806000000
S	  45.8635000000	   0.3034513391	  19.3975000000
S	  44.5148000000	  -1.0826486609	  18.4050000000
S	  45.5383000000	  -6.0979486609	  16.7435000000
S	  47.1271000000	  -7.1475486609	  17.4785000000
S	  46.6200000000	  -8.9927486609	  18.1144000000
S	  45.1505000000	  -4.4345486609	  18.0738000000
S	  45.3563000000	  -2.5301486609	  17.1735000000
