43

Li	  13.5457000000	  38.0120000000	  58.5219000000
N	  15.4252000000	  37.2717000000	  54.5218000000
S	  14.1119000000	  37.7887000000	  55.1345000000
O	  12.9123000000	  37.4563000000	  54.4711000000
O	  14.1470000000	  37.7402000000	  56.5927000000
C	  14.2563000000	  39.6491000000	  54.8038000000
F	  13.3080000000	  40.3458000000	  55.3900000000
F	  14.2878000000	  40.0649000000	  53.5062000000
F	  15.3829000000	  40.0792000000	  55.2847000000
S	  15.7370000000	  36.6521000000	  53.1454000000
O	  16.1865000000	  37.5765000000	  52.1367000000
O	  14.6263000000	  35.8333000000	  52.7269000000
C	  17.1057000000	  35.4608000000	  53.4544000000
F	  16.9418000000	  34.7256000000	  54.5450000000
F	  17.3292000000	  34.5286000000	  52.4836000000
F	  18.1845000000	  36.0959000000	  53.7028000000
O	  11.7312000000	  38.0650000000	  58.2449000000
O	   9.6497400000	  37.6059000000	  59.1451000000
C	  10.7658000000	  38.3024000000	  57.2993000000
C	   9.4938300000	  38.4980000000	  58.0678000000
C	  11.0637000000	  37.4068000000	  59.2460000000
H	  10.9035000000	  39.1244000000	  56.6068000000
H	  10.7140000000	  37.3738000000	  56.7259000000
H	   9.4663000000	  39.5610000000	  58.4073000000
H	   8.6771100000	  38.3111000000	  57.3462000000
H	  11.0139000000	  36.4283000000	  59.0085000000
H	  11.3600000000	  37.6916000000	  60.2711986609
S	  14.2718000000	  36.1915000000	  59.6873866609
S	  13.2810000000	  34.3062000000	  58.9467000000
S	  12.5554000000	  34.5916000000	  57.0213000000
S	  15.1053000000	  30.8954000000	  55.6821000000
S	  14.9099000000	  28.8582000000	  55.0736000000
S	  14.0701000000	  27.5785000000	  56.5041000000
S	  13.8817000000	  32.2596000000	  54.6335000000
S	  14.0665000000	  34.2408000000	  55.5891000000
S	  14.5399000000	  39.9427000000	  58.8306000000
S	  13.6179000000	  39.3557000000	  60.6116186609
S	  11.9002000000	  40.5228000000	  61.1297586609
S	  10.8557000000	  40.3017000000	  66.1034986609
S	  10.7981000000	  41.6542000000	  67.6203686609
S	   9.2998700000	  41.0839000000	  69.0283386609
S	  10.3071000000	  40.9073000000	  64.1847786609
S	  12.0037000000	  41.4715000000	  63.0588286609
