20

Li	  21.5437000000	  25.5973000000	  12.4442000000
O	  20.9925000000	  23.8518000000	  12.6488000000
O	  21.4431000000	  21.7309000000	  12.7216000000
C	  20.5262000000	  23.4578000000	  11.4427000000
C	  21.3149000000	  22.1789000000	  11.3507000000
C	  20.9974000000	  22.7628000000	  13.4775000000
H	  19.4168000000	  23.2746000000	  11.5089000000
H	  20.8842000000	  24.0500000000	  10.5619000000
H	  20.8088000000	  21.4961000000	  10.6835000000
H	  22.3195000000	  22.3702000000	  11.0560000000
H	  21.6103000000	  22.8471000000	  14.4053000000
H	  19.9627000000	  22.5375000000	  13.7863000000
S	  23.2224000000	  25.9142000000	  11.2095000000
S	  23.9500000000	  24.6874000000	  12.7384000000
S	  24.6381000000	  25.8368000000	  14.4149000000
S	  20.1988000000	  25.3661000000	  15.6545000000
S	  19.1233000000	  26.6803000000	  14.4506000000
S	  19.9489000000	  27.0949000000	  12.4676000000
S	  21.8505000000	  26.4349000000	  16.4671000000
S	  23.5903000000	  25.3052000000	  16.1672000000
