32

Li	  22.6984000000	  46.5023000000	   2.8046100000
N	  23.3592000000	  44.4991000000	  -0.7572486609
S	  22.6049000000	  44.0419000000	   0.5583700000
O	  22.4030000000	  45.1394000000	   1.4849200000
O	  21.6342000000	  43.0438000000	   0.3554513391
C	  23.9414000000	  43.1167000000	   1.5368800000
F	  25.0166000000	  43.9520000000	   1.7263200000
F	  24.3178000000	  42.1120000000	   0.7847930000
F	  23.4644000000	  42.5863000000	   2.6637800000
S	  23.0820000000	  44.1141000000	  -2.2491486609
O	  23.1227000000	  45.2591000000	  -3.1162486609
O	  21.9857000000	  43.1733000000	  -2.4536486609
C	  24.6101000000	  43.1439000000	  -2.5387486609
F	  24.7887000000	  42.6684000000	  -3.7591486609
F	  25.6480000000	  43.9123000000	  -2.3208486609
F	  24.7468000000	  42.1350000000	  -1.7006486609
S	  24.3696000000	  47.9481000000	   1.9115500000
S	  22.7846000000	  49.3797000000	   1.5672700000
S	  23.5419000000	  51.1218000000	   0.5424910000
S	  24.7899000000	  52.9570000000	  -3.7798486609
S	  26.8927000000	  52.9861000000	  -3.5928486609
S	  27.5989000000	  54.8585000000	  -3.9939486609
S	  23.6474000000	  53.3514000000	  -2.0448486609
S	  22.6340000000	  51.7211000000	  -1.2082486609
S	  21.0678000000	  48.0065000000	  -4.3855486609
S	  20.8359000000	  48.6422000000	  -2.3826486609
S	  21.1985000000	  47.1294000000	  -1.0275486609
S	  20.0755000000	  46.2071000000	   3.4273400000
S	  21.5103000000	  47.0948000000	   4.6406300000
S	  23.4314000000	  46.1622000000	   4.6210900000
S	  19.5406000000	  47.4934000000	   1.8634500000
S	  19.5055000000	  46.6167000000	  -0.0046486609
