57

Li	   2.3969500000	  30.3027000000	   9.3725600000
N	   3.3105700000	  34.6923000000	   9.4939500000
S	   3.5837700000	  33.3851000000	  10.3149000000
O	   3.4781600000	  33.4249000000	  11.7582000000
O	   3.0688700000	  32.1955000000	   9.6782700000
C	   5.3902000000	  33.4055000000	  10.0471000000
F	   5.9999100000	  32.5303000000	  10.8412000000
F	   5.8559200000	  34.5869000000	  10.3692000000
F	   5.6502600000	  33.0135000000	   8.8026600000
S	   1.8750800000	  35.3177000000	   9.1452900000
O	   0.9257400000	  34.3180000000	   8.7825600000
O	   2.0364800000	  36.4170000000	   8.2706600000
C	   1.5284500000	  36.0752000000	  10.7391000000
F	   2.4347700000	  36.9017000000	  11.2627000000
F	   0.5038570000	  36.8466000000	  10.5689000000
F	   1.1065700000	  35.3261000000	  11.6770000000
O	   2.3166400000	  30.7280000000	   7.1821000000
O	   2.6915400000	  31.4408000000	   5.1751700000
C	   2.3187100000	  29.6355000000	   6.3139600000
C	   1.9543400000	  30.2804000000	   4.9669800000
C	   2.3760100000	  31.8715000000	   6.4043200000
H	   3.2957400000	  29.3001000000	   6.1925100000
H	   1.5943000000	  28.8919000000	   6.5245300000
H	   2.4342500000	  29.7070000000	   4.2119600000
H	   0.8845240000	  30.3522000000	   4.6652900000
H	   1.3891100000	  32.4019000000	   6.4214000000
H	   3.1320200000	  32.5755000000	   6.7757900000
O	   2.2747600000	  30.3469000000	  11.4577000000
O	   3.1244900000	  30.9768000000	  13.4926000000
C	   1.2135800000	  30.3359000000	  12.3994000000
C	   1.6710400000	  31.0268000000	  13.6588000000
C	   3.3526900000	  30.1829000000	  12.3208000000
H	   0.3215513391	  30.7638000000	  12.0404000000
H	   0.9229460000	  29.2957000000	  12.6695000000
H	   1.3800400000	  32.0994000000	  13.5660000000
H	   1.3387300000	  30.6255000000	  14.5319000000
H	   3.4515700000	  29.1663000000	  12.6287000000
H	   4.2990700000	  30.3783000000	  11.8722000000
O	  -1.8846486609	  31.1884000000	   9.2484800000
O	   0.3965513391	  30.7552000000	   9.2029900000
C	  -1.7378486609	  29.8600000000	   9.7614300000
C	  -0.3133486609	  29.5178000000	   9.2554200000
C	  -0.5567486609	  31.7329000000	   9.1273500000
H	  -1.6829486609	  29.7508000000	  10.8055000000
H	  -2.4171486609	  29.0777000000	   9.3035200000
H	   0.1698513391	  28.7696000000	   9.8696400000
H	  -0.3088486609	  29.0266000000	   8.2406600000
H	  -0.3533486609	  32.2556000000	   8.1442800000
H	  -0.5447486609	  32.5341000000	   9.9001800000
S	   4.2134700000	  29.0512000000	   9.2522600000
S	   6.1756900000	  29.6393000000	   9.9145300000
S	   7.5963600000	  28.9714000000	   8.5511900000
S	  10.6803000000	  28.0183000000	  11.9044000000
S	  12.0515000000	  28.6979000000	  13.2786000000
S	  12.7602000000	  27.1524000000	  14.4312000000
S	  10.8910000000	  28.6340000000	   9.7868100000
S	   9.4243700000	  29.9382000000	   8.9417700000
