42

Li	  40.2916000000	  10.9158000000	  18.4006000000
N	  43.4681000000	  10.8299000000	  20.0879000000
S	  42.6035000000	  12.1171000000	  20.2129000000
O	  41.6565000000	  12.3375000000	  19.1473000000
O	  42.3002000000	  12.2560000000	  21.6138000000
C	  43.8541000000	  13.4749000000	  20.1000000000
F	  43.2922000000	  14.6564000000	  19.8321000000
F	  44.6341000000	  13.2633000000	  19.0924000000
F	  44.5631000000	  13.6162000000	  21.1987000000
S	  43.2115000000	   9.6157800000	  19.1079000000
O	  44.3127000000	   9.4561400000	  18.1791000000
O	  41.9004000000	   9.6828500000	  18.6168000000
C	  43.4193000000	   8.2296500000	  20.2841000000
F	  43.1973000000	   7.0955000000	  19.6621000000
F	  44.6651000000	   8.2136400000	  20.7732000000
F	  42.5491000000	   8.3380800000	  21.2815000000
N	  39.0207000000	  12.3935000000	  14.7235000000
S	  38.3583000000	  12.4751000000	  13.3321000000
O	  39.1409000000	  11.7559000000	  12.3518000000
O	  36.9202000000	  12.3708000000	  13.2252000000
C	  38.6728000000	  14.2053000000	  12.9125000000
F	  39.8784000000	  14.4179000000	  12.5935000000
F	  38.3757000000	  15.0563000000	  13.9081000000
F	  37.8830000000	  14.6201000000	  11.9211000000
S	  39.8984000000	  11.1224000000	  15.1680000000
O	  39.9750000000	  10.0571000000	  14.1871000000
O	  39.6588000000	  10.7529000000	  16.5424000000
C	  41.5265000000	  11.7368000000	  15.3138000000
F	  41.5824000000	  12.4950000000	  16.3523000000
F	  42.4343000000	  10.8122000000	  15.5150000000
F	  41.8796000000	  12.4795000000	  14.3134000000
O	  37.7825000000	   9.4510800000	  21.2182000000
O	  39.3281000000	  10.4871000000	  19.9169000000
C	  38.6383000000	  10.0300000000	  22.1575000000
C	  39.1416000000	  11.1412000000	  21.1817000000
C	  38.1367000000	   9.7348700000	  19.8573000000
H	  38.1695000000	  10.4980000000	  23.0782000000
H	  39.4670000000	   9.3360600000	  22.5339000000
H	  38.4642000000	  11.9636000000	  21.1924000000
H	  40.0853000000	  11.5188000000	  21.5166000000
H	  38.2157000000	   8.7779800000	  19.2265000000
H	  37.3072000000	  10.2756000000	  19.3547000000
