28

Li	  40.2912000000	   9.8362700000	   6.3798900000
O	  40.2447000000	   9.2701400000	   4.6266500000
O	  40.0360000000	   9.1851500000	   2.3280600000
C	  41.4949000000	   8.7589100000	   4.0890400000
C	  41.1929000000	   8.4096200000	   2.5967400000
C	  39.3241000000	   9.1565000000	   3.5696600000
H	  42.3252000000	   9.5176300000	   4.2025200000
H	  41.8495000000	   7.8436400000	   4.5130100000
H	  42.0231000000	   8.6290700000	   1.9441700000
H	  41.0036000000	   7.2825500000	   2.5461100000
H	  38.6808000000	   8.2797900000	   3.5783100000
H	  38.5663000000	   9.9997000000	   3.6169100000
S	  41.2714000000	  11.1401000000	   7.9134400000
S	  42.9760000000	  11.2158000000	   6.6236100000
S	  44.7621000000	  10.2232000000	   7.2360800000
S	  45.1514000000	   5.0514900000	   8.0298700000
S	  44.2955000000	   5.1921100000	  10.0664000000
S	  42.1376000000	   5.3312000000	   9.9748900000
S	  46.1432000000	   6.9071300000	   7.4263400000
S	  44.9108000000	   8.2386800000	   6.3427100000
S	  40.9123000000	   7.8643400000	   7.6864400000
S	  40.8670000000	   6.1166200000	   6.5709600000
S	  38.8892000000	   5.3657000000	   6.3261100000
S	  36.7056000000	   1.0549400000	   7.0389900000
S	  35.7711000000	   0.2245513391	   8.7135200000
S	  34.3898000000	   1.6031700000	   9.5781300000
S	  38.4714000000	   1.9414300000	   7.5643100000
S	  38.2870000000	   4.0894400000	   7.8777300000
