32

Li	  20.0483000000	  46.3417000000	   1.2823900000
N	  21.2105000000	  43.8092000000	  -2.5049486609
S	  21.7972000000	  44.6313000000	  -1.2885486609
O	  20.7531000000	  45.1737000000	  -0.4234486609
O	  23.0138000000	  44.1430000000	  -0.6451486609
C	  22.4284000000	  46.1202000000	  -2.1278486609
F	  23.3812000000	  45.8044000000	  -3.0177486609
F	  22.9272000000	  46.9115000000	  -1.2203486609
F	  21.4244000000	  46.7956000000	  -2.6849486609
S	  21.6356000000	  42.3683000000	  -3.0087486609
O	  20.5456000000	  41.6057000000	  -3.5044486609
O	  22.6004000000	  41.7381000000	  -2.1217486609
C	  22.6775000000	  42.7832000000	  -4.5183486609
F	  23.8371000000	  43.3022000000	  -4.2985486609
F	  22.9469000000	  41.6535000000	  -5.2333486609
F	  22.0639000000	  43.5518000000	  -5.4424486609
S	  21.4600000000	  47.8608000000	   1.4183900000
S	  19.8111000000	  49.0756000000	   1.5110700000
S	  19.7859000000	  50.5112000000	  -0.0475486609
S	  23.5040000000	  53.8233000000	  -0.7903486609
S	  24.3967000000	  53.3961000000	  -2.5754486609
S	  25.4535000000	  55.0288000000	  -3.2711486609
S	  21.3598000000	  53.6675000000	  -0.8575486609
S	  20.3808000000	  52.4534000000	   0.5927190000
S	  16.6110000000	  49.2813000000	  -4.4426486609
S	  17.6234000000	  49.4657000000	  -2.5545486609
S	  17.8381000000	  47.4980000000	  -1.6185486609
S	  16.1735000000	  46.2069000000	   2.8033200000
S	  18.1328000000	  46.1880000000	   3.3850300000
S	  19.4321000000	  44.7390000000	   2.4903500000
S	  15.8660000000	  47.5794000000	   1.2975700000
S	  16.0577000000	  46.9392000000	  -0.6545486609
