39

Li	   5.1593600000	  48.0975000000	  14.4285000000
N	   6.7064600000	  51.2047000000	  12.2634000000
S	   5.3598600000	  50.5607000000	  12.7323000000
O	   4.4572300000	  50.1483000000	  11.6747000000
O	   5.5296200000	  49.7952000000	  13.9979000000
C	   4.5541000000	  52.1122000000	  13.3776000000
F	   4.4815900000	  53.0140000000	  12.4370000000
F	   5.3814200000	  52.5670000000	  14.3002000000
F	   3.3758100000	  51.9714000000	  13.9072000000
S	   7.5310500000	  51.1516000000	  10.9220000000
O	   8.1553200000	  52.3807000000	  10.5996000000
O	   6.8555200000	  50.5072000000	   9.8543700000
C	   8.9616700000	  49.9982000000	  11.3913000000
F	   9.6553100000	  49.5572000000	  10.3874000000
F	   9.8935600000	  50.5418000000	  12.1092000000
F	   8.4829200000	  48.9127000000	  12.0103000000
N	   0.6867270000	  48.0462000000	  14.3840000000
S	   2.0600300000	  47.6801000000	  15.0465000000
O	   2.0215100000	  46.5349000000	  15.8659000000
O	   3.2543000000	  48.0032000000	  14.3193000000
C	   2.0060700000	  48.8511000000	  16.3802000000
F	   2.9682100000	  48.7155000000	  17.2343000000
F	   0.7959850000	  48.7406000000	  16.9442000000
F	   2.1590900000	  50.1060000000	  15.9265000000
S	  -0.3567486609	  47.1764000000	  13.6550000000
O	  -0.0648486609	  45.7816000000	  13.8192000000
O	  -0.8362486609	  47.5929000000	  12.2935000000
C	  -1.7413486609	  47.4969000000	  14.7775000000
F	  -1.2745486609	  47.4530000000	  16.0507000000
F	  -2.2034486609	  48.7422000000	  14.4955000000
F	  -2.8352486609	  46.7504000000	  14.7331000000
S	   5.9339400000	  46.9097000000	  16.1255000000
S	   6.9330900000	  46.2084000000	  14.3840000000
S	   5.8919400000	  46.9892000000	  12.5880000000
S	   1.5149800000	  47.2089000000	  10.3216000000
S	   0.4431513391	  46.6171000000	   8.7315600000
S	  -1.0148486609	  45.2047000000	   9.2751500000
S	   3.5875000000	  46.7691000000	  10.1739000000
S	   4.5749400000	  45.6685000000	  11.6276000000
