50

Li	   8.7883000000	  22.2956000000	  45.0172000000
N	   7.4485400000	  19.6192000000	  42.0847000000
S	   8.7798300000	  20.2906000000	  42.6501000000
O	   9.6303900000	  21.0220000000	  41.7482000000
O	   8.5759800000	  20.9257000000	  43.9414000000
C	   9.8738000000	  18.8862000000	  43.0573000000
F	   9.7626600000	  17.9433000000	  42.1857000000
F	   9.5965300000	  18.3686000000	  44.2620000000
F	  11.1194000000	  19.2513000000	  43.1683000000
S	   6.9616400000	  19.4848000000	  40.6164000000
O	   7.9626500000	  19.0064000000	  39.6623000000
O	   6.1050700000	  20.6076000000	  40.2281000000
C	   5.8329100000	  18.0298000000	  40.7679000000
F	   5.2087500000	  17.8346000000	  39.6221000000
F	   6.4588700000	  16.9184000000	  41.1830000000
F	   4.9371300000	  18.3055000000	  41.7073000000
N	   5.5072900000	  23.3925000000	  43.3469000000
S	   6.6880800000	  23.7000000000	  42.3147000000
O	   7.9691000000	  23.3353000000	  42.8020000000
O	   6.2709400000	  23.3738000000	  40.9974000000
C	   6.6816000000	  25.5395000000	  42.2859000000
F	   5.5139400000	  26.0712000000	  42.3818000000
F	   7.3391000000	  26.0321000000	  41.2284000000
F	   7.2216100000	  25.9514000000	  43.3967000000
S	   5.6723000000	  23.3115000000	  44.9108000000
O	   4.8480200000	  24.2110000000	  45.5621000000
O	   7.1153900000	  23.2181000000	  45.3366000000
C	   4.9880300000	  21.6878000000	  45.3056000000
F	   5.8979900000	  20.7260000000	  45.0815000000
F	   4.8218700000	  21.5753000000	  46.5628000000
F	   3.8457100000	  21.3936000000	  44.6255000000
O	   8.8859200000	  21.6024000000	  46.8457000000
O	  10.3164000000	  20.8558000000	  48.5487000000
C	   8.4610400000	  20.3761000000	  47.2801000000
C	   9.6899400000	  19.7812000000	  47.8602000000
C	   9.8642600000	  21.9336000000	  47.7384000000
H	   7.8324600000	  20.5330000000	  48.1590000000
H	   8.0230300000	  19.8403000000	  46.4763000000
H	   9.4748600000	  19.0109000000	  48.5107000000
H	  10.3884000000	  19.4585000000	  47.0715000000
H	  10.7198000000	  22.2558000000	  47.0552000000
H	   9.5845700000	  22.6671000000	  48.3977000000
S	  10.7415000000	  23.0598000000	  44.4801000000
S	  10.3201000000	  25.0634000000	  45.1200000000
S	   9.1658100000	  25.2340000000	  46.8452000000
S	   6.1707600000	  29.2100000000	  47.9988000000
S	   6.2172400000	  31.2821000000	  47.8455000000
S	   4.6916600000	  32.1132000000	  46.8476000000
S	   7.6293900000	  28.4145000000	  46.8760000000
S	   7.4055700000	  26.3237000000	  46.6340000000
