53

Li	  27.1797000000	  29.2121000000	   9.4846200000
O	  26.3827000000	  33.5043000000	   9.1002500000
O	  26.6439000000	  31.2777000000	   8.7316900000
C	  26.9684000000	  33.3769000000	   7.8638000000
C	  26.6635000000	  31.8998000000	   7.4348400000
C	  26.1712000000	  32.2451000000	   9.5361000000
H	  26.5111000000	  34.1920000000	   7.2339300000
H	  28.0816000000	  33.5587000000	   7.8587800000
H	  25.7312000000	  31.7169000000	   6.9323400000
H	  27.3891000000	  31.3043000000	   6.8845400000
H	  26.5796000000	  32.1104000000	  10.5278000000
H	  25.0811000000	  32.0497000000	   9.6441200000
O	  29.1522000000	  29.8249000000	   9.8972400000
O	  29.7444000000	  31.3486000000	   8.4133200000
C	  29.9513000000	  30.7462000000	  10.6002000000
C	  30.0880000000	  31.9247000000	   9.6453800000
C	  29.5020000000	  30.0187000000	   8.5938400000
H	  29.4887000000	  31.0756000000	  11.5586000000
H	  30.8483000000	  30.2423000000	  10.8451000000
H	  29.4236000000	  32.7728000000	   9.8925000000
H	  31.0944000000	  32.2534000000	   9.4324600000
H	  30.4238000000	  29.5374000000	   8.3680300000
H	  28.7757000000	  29.7540000000	   7.8836700000
O	  23.7894000000	  27.4150000000	   8.4629200000
O	  25.1593000000	  29.1839000000	   8.5263000000
C	  23.1077000000	  28.3209000000	   7.6784900000
C	  24.1170000000	  29.4623000000	   7.6146700000
C	  24.4361000000	  28.2681000000	   9.3114700000
H	  22.8309000000	  27.9217000000	   6.7184200000
H	  22.1673000000	  28.6815000000	   8.1583500000
H	  24.4540000000	  29.5716000000	   6.5667800000
H	  23.6496000000	  30.3825000000	   7.9909700000
H	  23.6933000000	  28.7836000000	   9.9438700000
H	  25.1070000000	  27.7431000000	   9.9191000000
O	  27.6673000000	  27.5616000000	   8.7312200000
O	  29.5154000000	  26.5265000000	   7.9637300000
C	  27.4929000000	  27.3021000000	   7.3518300000
C	  28.8548000000	  27.0207000000	   6.8687700000
C	  28.6995000000	  26.7731000000	   9.0877000000
H	  26.8927000000	  26.3531000000	   7.4209000000
H	  26.9353000000	  28.1742000000	   6.8211900000
H	  28.8175000000	  26.2833000000	   6.0209500000
H	  29.2236000000	  28.0015000000	   6.5062000000
H	  29.2960000000	  27.3039000000	   9.8579000000
H	  28.3424000000	  25.8138000000	   9.4204700000
S	  26.7470000000	  28.8406000000	  11.7133000000
S	  26.9938000000	  29.5227000000	  13.7740000000
S	  27.2769000000	  31.5809000000	  13.8796000000
S	  22.3953000000	  32.2843000000	  12.9454000000
S	  22.7801000000	  30.7686000000	  11.5792000000
S	  22.9399000000	  29.0214000000	  12.7187000000
S	  24.1947000000	  33.4178000000	  13.0562000000
S	  25.5693000000	  32.6446000000	  14.6076000000
