28

Li	   9.4886800000	  32.4153000000	  34.2431000000
O	  10.2416000000	  30.8824000000	  34.9241000000
O	   9.6101100000	  28.7172000000	  34.8997000000
C	  10.5675000000	  30.3847000000	  36.1799000000
C	   9.6490600000	  29.1484000000	  36.2800000000
C	  10.1274000000	  29.7681000000	  34.1260000000
H	  11.5874000000	  30.0395000000	  36.1918000000
H	  10.3922000000	  31.0784000000	  37.0061000000
H	   9.9445700000	  28.3649000000	  36.9915000000
H	   8.6793800000	  29.4741000000	  36.6308000000
H	   9.3416500000	  29.9214000000	  33.3629000000
H	  11.0240000000	  29.4131000000	  33.6797000000
S	   1.5834100000	  30.9913000000	  30.5047000000
S	   0.8269260000	  32.2724000000	  31.9819000000
S	   2.3658800000	  33.0962000000	  33.1317000000
S	   5.9185400000	  30.5245000000	  35.3153000000
S	   7.3223200000	  31.6989000000	  34.2917000000
S	   8.1887500000	  33.0234000000	  35.6999000000
S	   4.0771500000	  30.3060000000	  34.4260000000
S	   2.7586200000	  31.9544000000	  34.8063000000
S	  17.2624000000	  37.3999000000	  37.1309000000
S	  16.6342000000	  35.5592000000	  36.3568000000
S	  15.5393000000	  34.4980000000	  37.8157000000
S	  12.3237000000	  34.5538000000	  34.3642000000
S	  11.5105000000	  32.9729000000	  33.1700000000
S	   9.5886600000	  33.4518000000	  32.5210000000
S	  12.4317000000	  33.8912000000	  36.3803000000
S	  14.2873000000	  33.0211000000	  36.9143000000
