57

Li	  27.1144000000	  46.3167000000	  43.5349000000
N	  29.2512000000	  43.1363000000	  42.8553000000
S	  28.8991000000	  41.6449000000	  43.2130000000
O	  29.0606000000	  41.3174000000	  44.6550000000
O	  27.8510000000	  40.9884000000	  42.4555000000
C	  30.3693000000	  40.7981000000	  42.5304000000
F	  30.2472000000	  39.5109000000	  42.5259000000
F	  31.5327000000	  41.1711000000	  43.0326000000
F	  30.4111000000	  40.9823000000	  41.2731000000
S	  28.5897000000	  43.9655000000	  41.6958000000
O	  28.2065000000	  45.2765000000	  42.1444000000
O	  27.7202000000	  43.2232000000	  40.8306000000
C	  29.9701000000	  44.3761000000	  40.5813000000
F	  30.7168000000	  43.3058000000	  40.3427000000
F	  29.6237000000	  44.7985000000	  39.4123000000
F	  30.7855000000	  45.2398000000	  41.1601000000
N	  26.4500000000	  43.4916000000	  45.1223000000
S	  25.5333000000	  43.7810000000	  43.8559000000
O	  25.5058000000	  45.0954000000	  43.2846000000
O	  25.6645000000	  42.7208000000	  42.8535000000
C	  23.7957000000	  43.4231000000	  44.5015000000
F	  22.9172000000	  43.8994000000	  43.6375000000
F	  23.5952000000	  43.9632000000	  45.6879000000
F	  23.4914000000	  42.1160000000	  44.6886000000
S	  27.4984000000	  44.3395000000	  45.8459000000
O	  27.8380000000	  45.6272000000	  45.3164000000
O	  28.5557000000	  43.4839000000	  46.3393000000
C	  26.6034000000	  44.7667000000	  47.4075000000
F	  25.7720000000	  45.8164000000	  47.3430000000
F	  25.8593000000	  43.7577000000	  47.7880000000
F	  27.5092000000	  45.0703000000	  48.3665000000
N	  23.6930000000	  48.5129000000	  43.3450000000
S	  24.4681000000	  48.2838000000	  41.9928000000
O	  24.4837000000	  49.4645000000	  41.2071000000
O	  25.7041000000	  47.5767000000	  41.9509000000
C	  23.2623000000	  47.2471000000	  41.1426000000
F	  23.7820000000	  47.0180000000	  39.9581000000
F	  22.1439000000	  47.8378000000	  40.9187000000
F	  23.0711000000	  46.0941000000	  41.7608000000
S	  23.9786000000	  48.0473000000	  44.8026000000
O	  25.2582000000	  47.3705000000	  44.8666000000
O	  22.8053000000	  47.5639000000	  45.5091000000
C	  24.2892000000	  49.6614000000	  45.6310000000
F	  24.7440000000	  49.3916000000	  46.8739000000
F	  25.1390000000	  50.3644000000	  44.9116000000
F	  23.1901000000	  50.4022000000	  45.7418000000
O	  29.5695000000	  48.8706000000	  45.1694000000
O	  27.9174000000	  47.9163000000	  43.9213000000
C	  30.0473000000	  48.6891000000	  43.8815000000
C	  28.7852000000	  48.4943000000	  42.9827000000
C	  28.1976000000	  48.6252000000	  45.0331000000
H	  30.5548000000	  49.5917000000	  43.5135000000
H	  30.6766000000	  47.7974000000	  43.8980000000
H	  28.3135000000	  49.4402000000	  42.6533000000
H	  29.0325000000	  47.9135000000	  42.1512000000
H	  27.8520000000	  48.1657000000	  45.8788000000
H	  27.7283000000	  49.5980000000	  44.9186000000
