57

Li	  56.4845000000	  27.7154000000	   3.8923900000
N	  59.9611956609	  28.7494000000	   6.7464100000
S	  61.1420086609	  28.1361000000	   6.0272000000
O	  61.0981386609	  28.2308000000	   4.5563400000
O	  62.4327586609	  28.5500000000	   6.6351400000
C	  60.8421886609	  26.3160000000	   6.3557000000
F	  60.6981586609	  26.1090000000	   7.6228900000
F	  61.8039686609	  25.5219000000	   5.9678300000
F	  59.7196886609	  25.7912000000	   5.9042100000
S	  58.5359000000	  29.1245000000	   6.1993500000
O	  57.6200000000	  29.4607000000	   7.2938200000
O	  57.9272000000	  28.2520000000	   5.1941900000
C	  58.8466000000	  30.6595000000	   5.3582400000
F	  59.7326966609	  30.5361000000	   4.3952400000
F	  57.7211000000	  31.0846000000	   4.8218000000
F	  59.2570000000	  31.6822000000	   6.1268500000
N	  57.2541000000	  25.4694000000	   0.4749513391
S	  58.1647000000	  25.6257000000	   1.7061900000
O	  57.7348000000	  26.5251000000	   2.7180300000
O	  58.6234000000	  24.3382000000	   2.1734300000
C	  59.6516596609	  26.4712000000	   1.0043000000
F	  60.5265586609	  26.8434000000	   1.8740200000
F	  59.4061000000	  27.5064000000	   0.2427513391
F	  60.2863986609	  25.6194000000	   0.2276513391
S	  55.8266000000	  26.1717000000	   0.2769513391
O	  55.7564000000	  26.8160000000	  -0.9924486609
O	  55.3251000000	  26.8996000000	   1.4136200000
C	  54.7397000000	  24.7322000000	   0.1309513391
F	  54.7230000000	  24.0388000000	   1.2517500000
F	  53.4827000000	  25.0182000000	  -0.1186486609
F	  55.0752000000	  23.9332000000	  -0.8613486609
N	  55.1090000000	  30.2489000000	   1.6086800000
S	  54.4819000000	  30.1314000000	   3.0668200000
O	  54.9581000000	  29.0949000000	   3.8927400000
O	  54.1275000000	  31.4232000000	   3.5543200000
C	  52.8894000000	  29.3922000000	   2.6189600000
F	  53.0078000000	  28.2392000000	   1.9383900000
F	  52.2021000000	  30.1003000000	   1.7450500000
F	  52.1694000000	  29.1402000000	   3.6673400000
S	  56.6093000000	  29.9020000000	   1.3831400000
O	  56.8183000000	  29.1935000000	   0.1601513391
O	  57.3553000000	  29.4313000000	   2.5493000000
C	  57.3144000000	  31.5126000000	   1.0953700000
F	  57.0059000000	  32.3484000000	   2.1176600000
F	  58.6017000000	  31.3732000000	   0.9129860000
F	  56.9244000000	  31.9891000000	  -0.0658486609
O	  55.5149000000	  26.4831000000	   4.8769900000
O	  54.0254000000	  25.0724000000	   5.7177900000
C	  56.3300000000	  25.3939000000	   5.2514500000
C	  55.2979000000	  24.5831000000	   6.0613900000
C	  54.2426000000	  25.9319000000	   4.6125400000
H	  56.6271000000	  24.8439000000	   4.3796400000
H	  57.2589000000	  25.6955000000	   5.8255000000
H	  55.2611000000	  23.5000000000	   5.8654000000
H	  55.4938000000	  24.7387000000	   7.1306200000
H	  53.6145000000	  26.7842000000	   4.4670400000
H	  54.2136000000	  25.2736000000	   3.6891000000
