31

Li	  21.8988000000	  23.8342000000	  22.4681000000
O	  23.5816000000	  27.8480000000	  22.2446000000
O	  22.3922000000	  25.9600000000	  22.0571000000
C	  22.2146000000	  28.2741000000	  21.8952000000
C	  21.3566000000	  26.8886000000	  21.6867000000
C	  23.6230000000	  26.5907000000	  21.7079000000
H	  21.7916000000	  28.8485000000	  22.7674000000
H	  22.2121000000	  28.8983000000	  21.0125000000
H	  20.3796000000	  26.9370000000	  22.2873000000
H	  21.2249000000	  26.6448000000	  20.5988000000
H	  23.9333000000	  26.5702000000	  20.6728000000
H	  24.4686000000	  26.0797000000	  22.1722000000
O	  22.3797000000	  23.7161000000	  24.2819000000
O	  23.9088000000	  23.9359000000	  25.9341000000
C	  21.9142000000	  22.9677000000	  25.3956000000
C	  23.1034000000	  22.8345000000	  26.2951000000
C	  23.2608000000	  24.6258000000	  24.9042000000
H	  21.0489000000	  23.5150000000	  25.8619000000
H	  21.4683000000	  22.0126000000	  25.1503000000
H	  22.9910000000	  22.6887000000	  27.3633000000
H	  23.5709000000	  21.8790000000	  26.0166000000
H	  23.9730000000	  25.0130000000	  24.2259000000
H	  22.7788000000	  25.4900000000	  25.4071000000
S	  22.6296000000	  21.7076000000	  21.9355000000
S	  23.8436000000	  23.3025000000	  21.1303000000
S	  23.6000000000	  23.5140000000	  19.1108000000
S	  18.6330000000	  24.5802000000	  19.2226000000
S	  18.2024000000	  23.3131000000	  20.8252000000
S	  19.7508000000	  23.4095000000	  22.2473000000
S	  20.2587000000	  23.8964000000	  18.0456000000
S	  22.0670000000	  24.8043000000	  18.5154000000
