64

Li	   7.8304700000	  54.7603000000	  17.2077000000
N	  10.3794000000	  57.9512000000	  15.3534000000
S	  10.4358000000	  59.5408406609	  15.4928000000
O	   9.1760100000	  60.1821186609	  15.1631000000
O	  11.2148000000	  60.0128166609	  16.6457000000
C	  11.5546000000	  59.9205566609	  14.0769000000
F	  11.1188000000	  59.3902000000	  12.8978000000
F	  12.8235000000	  59.4851000000	  14.2422000000
F	  11.7106000000	  61.2237886609	  13.9070000000
S	  10.8420000000	  56.7829000000	  16.2827000000
O	   9.8661100000	  55.7054000000	  16.2324000000
O	  11.2664000000	  57.1625000000	  17.5692000000
C	  12.3769000000	  56.0557000000	  15.4618000000
F	  12.8002000000	  54.9111000000	  16.0669000000
F	  12.1085000000	  55.5504000000	  14.2308000000
F	  13.2724000000	  56.9762000000	  15.2674000000
N	   7.8423100000	  57.9542000000	  19.4041000000
S	   8.2604300000	  56.5308000000	  19.9368000000
O	   8.5724100000	  55.5573000000	  18.9431000000
O	   9.0672700000	  56.5631000000	  21.1478000000
C	   6.6350500000	  55.8851000000	  20.6950000000
F	   5.7263200000	  55.5343000000	  19.8457000000
F	   6.1745700000	  56.5874000000	  21.6824000000
F	   6.7945500000	  54.7176000000	  21.3607000000
S	   8.3918100000	  59.4541000000	  19.6333000000
O	   9.2914900000	  60.0025996609	  18.6152000000
O	   8.7097500000	  59.6104956609	  21.0042000000
C	   6.8496100000	  60.4228886609	  19.4767000000
F	   5.8670300000	  59.7829926609	  20.0669000000
F	   6.9796000000	  61.6325786609	  19.9783000000
F	   6.4346200000	  60.4802186609	  18.2498000000
O	   7.1286200000	  53.0550000000	  18.0641000000
O	   7.8499700000	  51.6281000000	  19.6541000000
C	   6.0054800000	  52.4083000000	  18.4336000000
C	   6.4409000000	  51.5601000000	  19.6442000000
C	   8.1745700000	  52.2075000000	  18.4470000000
H	   5.3740200000	  53.2030000000	  18.7760000000
H	   5.6251200000	  51.8359000000	  17.6142000000
H	   6.0915000000	  52.0093000000	  20.5899000000
H	   6.0807500000	  50.4840000000	  19.6878000000
H	   8.3524300000	  51.3848000000	  17.7844000000
H	   9.0018800000	  52.8331000000	  18.5539000000
O	   5.6997000000	  57.1315000000	  14.8194000000
O	   6.6718300000	  56.1846000000	  16.5844000000
C	   4.9718400000	  57.6451000000	  15.8872000000
C	   5.4771700000	  56.7604000000	  17.0512000000
C	   6.9458300000	  56.8069000000	  15.3718000000
H	   5.4174100000	  58.6047000000	  16.1520000000
H	   3.9405900000	  57.9163000000	  15.8545000000
H	   5.7172600000	  57.3472000000	  17.9446000000
H	   4.6854800000	  56.1548000000	  17.4054000000
H	   7.4944700000	  56.0072000000	  14.8104000000
H	   7.6826400000	  57.5579000000	  15.5306000000
O	   7.8092600000	  53.6558000000	  15.4828000000
O	   7.7812300000	  51.6490000000	  14.6156000000
C	   6.4479900000	  53.5109000000	  15.0615000000
C	   6.4155800000	  51.9567000000	  14.7040000000
C	   8.4743100000	  52.8111000000	  14.6384000000
H	   5.7196700000	  53.7006000000	  15.8019000000
H	   6.3321900000	  54.2012000000	  14.3292000000
H	   5.9829000000	  51.3161000000	  15.4206000000
H	   5.9178500000	  51.8865000000	  13.6838000000
H	   8.6710100000	  53.2051000000	  13.6659000000
H	   9.4570500000	  52.7450000000	  15.1694000000
