46

Li	  27.7726000000	  31.5689000000	  48.5884000000
N	  26.8330000000	  32.8061000000	  51.4689000000
S	  26.1173000000	  33.3760000000	  50.1888000000
O	  26.6111000000	  32.9420000000	  48.9526000000
O	  24.7012000000	  33.6308000000	  50.2823000000
C	  26.7226000000	  35.1504000000	  50.1963000000
F	  26.0115000000	  35.8859000000	  51.0653000000
F	  26.7562000000	  35.6572000000	  48.9688000000
F	  27.9841000000	  35.2513000000	  50.5696000000
S	  27.8054000000	  31.5746000000	  51.5467000000
O	  28.5746000000	  31.4447000000	  50.3449000000
O	  27.1942000000	  30.3712000000	  52.1636000000
C	  28.9807000000	  32.2332000000	  52.7767000000
F	  29.6012000000	  33.3854000000	  52.4606000000
F	  28.4109000000	  32.4405000000	  54.0236000000
F	  29.9403000000	  31.3736000000	  53.0306000000
N	  31.7597000000	  32.5632000000	  47.6417000000
S	  30.4449000000	  32.4348000000	  46.8991000000
O	  29.2863000000	  32.1088000000	  47.6377000000
O	  30.3376000000	  33.3466000000	  45.7802000000
C	  30.7459000000	  30.8463000000	  46.0768000000
F	  29.9604000000	  30.8264000000	  45.0157000000
F	  30.5186000000	  29.7862000000	  46.8409000000
F	  31.9819000000	  30.7197000000	  45.6061000000
S	  31.9615000000	  32.7577000000	  49.2082000000
O	  32.2600000000	  31.6013000000	  49.9697000000
O	  31.1128000000	  33.7317000000	  49.7704000000
C	  33.5582000000	  33.5226000000	  49.1824000000
F	  34.0927000000	  33.5491000000	  50.3964000000
F	  34.3197000000	  32.7282000000	  48.4586000000
F	  33.5457000000	  34.7509000000	  48.7104000000
N	  27.2845000000	  27.4409000000	  48.7575000000
S	  26.5874000000	  26.3005000000	  49.6094000000
O	  26.8469000000	  26.3817000000	  51.0166000000
O	  25.3096000000	  25.7662000000	  49.1171000000
C	  27.6563000000	  24.8673000000	  49.0554000000
F	  28.9082000000	  25.0714000000	  49.4122000000
F	  27.5758000000	  24.6066000000	  47.7570000000
F	  27.2568000000	  23.6981000000	  49.6395000000
S	  26.6700000000	  28.5744000000	  47.8792000000
O	  27.4083000000	  29.7755000000	  47.9875000000
O	  25.1925000000	  28.6908000000	  47.9379000000
C	  26.9986000000	  27.9905000000	  46.1650000000
F	  26.5358000000	  28.9125000000	  45.3499000000
F	  28.2884000000	  27.8592000000	  45.8819000000
F	  26.4366000000	  26.7899000000	  45.9463000000
