32

Li	  52.8765000000	  11.6544000000	   8.9026300000
N	  54.1164000000	   9.7202200000	   5.4013300000
S	  54.7192000000	  10.9559000000	   6.1806600000
O	  53.9488000000	  11.3363000000	   7.3462500000
O	  56.1280000000	  10.8460000000	   6.3682900000
C	  54.4888000000	  12.3432000000	   5.0952100000
F	  55.1995000000	  13.3482000000	   5.5529500000
F	  53.1963000000	  12.7251000000	   5.1616500000
F	  54.8126000000	  12.1845000000	   3.8157400000
S	  54.7668000000	   8.2536700000	   5.3951500000
O	  53.9423000000	   7.1907800000	   5.8470200000
O	  56.1363000000	   8.2296000000	   5.8399700000
C	  54.8787000000	   7.9795500000	   3.7053300000
F	  55.5698000000	   6.9161300000	   3.4186500000
F	  53.6434000000	   7.8123300000	   3.1899700000
F	  55.3685000000	   9.0292900000	   3.0059200000
S	  51.5677000000	   9.9860400000	   9.0936800000
S	  50.7301000000	  11.0843000000	   7.5724600000
S	  50.2398000000	  13.0196000000	   8.3533900000
S	  45.4746000000	  14.9318000000	   9.3453800000
S	  43.5158000000	  14.0263000000	   9.3625700000
S	  42.3623000000	  14.4081000000	   7.6714300000
S	  46.8549000000	  13.7059000000	   8.1296100000
S	  48.2858000000	  12.8475000000	   9.3012500000
S	  53.5477000000	  13.3219000000	   9.9688800000
S	  53.8697000000	  11.6118000000	  11.1576000000
S	  55.8941000000	  11.0970000000	  11.2133000000
S	  55.5978000000	   6.1267600000	   9.3680000000
S	  53.6896000000	   5.3078200000	   9.8282900000
S	  52.2028000000	   6.3432200000	   8.6488800000
S	  56.0952000000	   7.6773300000	  10.7906000000
S	  56.4363000000	   9.5401100000	   9.8807900000
