53

Li	  25.1160000000	  25.1870000000	  50.9061000000
N	  27.1511000000	  22.3536000000	  49.2336000000
S	  25.7260000000	  22.4781000000	  48.5778000000
O	  24.7377000000	  23.2599000000	  49.2821000000
O	  25.8284000000	  22.6817000000	  47.1702000000
C	  25.0172000000	  20.7764000000	  48.6891000000
F	  23.8264000000	  20.7656000000	  48.1098000000
F	  24.8283000000	  20.5080000000	  49.9687000000
F	  25.7349000000	  19.8406000000	  48.1501000000
S	  27.8737000000	  23.3086000000	  50.3052000000
O	  26.9953000000	  23.9744000000	  51.2531000000
O	  28.9068000000	  24.1549000000	  49.7569000000
C	  28.6824000000	  22.0865000000	  51.3321000000
F	  29.3580000000	  22.5996000000	  52.3495000000
F	  27.8300000000	  21.2939000000	  51.8664000000
F	  29.5450000000	  21.3133000000	  50.7119000000
N	  23.9997000000	  26.8827000000	  48.0515000000
S	  25.4284000000	  26.2857000000	  48.0978000000
O	  25.9429000000	  25.9703000000	  49.3839000000
O	  25.7198000000	  25.4126000000	  47.0039000000
C	  26.4100000000	  27.7361000000	  47.6466000000
F	  27.7099000000	  27.5243000000	  47.6556000000
F	  26.2039000000	  28.7022000000	  48.4863000000
F	  26.1357000000	  28.1739000000	  46.4439000000
S	  22.8999000000	  26.6248000000	  49.1932000000
O	  23.3517000000	  25.9023000000	  50.3477000000
O	  21.6514000000	  26.1749000000	  48.5915000000
C	  22.5485000000	  28.2477000000	  49.8491000000
F	  23.6696000000	  28.8300000000	  50.2491000000
F	  21.9600000000	  29.0900000000	  48.9917000000
F	  21.7921000000	  28.1793000000	  50.9364000000
O	  25.3205000000	  26.6690000000	  52.1294000000
O	  25.6399000000	  27.6127000000	  54.1717000000
C	  26.4882000000	  27.4599000000	  52.0227000000
C	  26.9064000000	  27.6541000000	  53.5014000000
C	  24.6783000000	  27.0926000000	  53.2708000000
H	  27.1740000000	  27.0580000000	  51.2886000000
H	  26.1502000000	  28.4370000000	  51.5039000000
H	  27.3256000000	  26.6852000000	  53.8439000000
H	  27.4439000000	  28.5680000000	  53.7327000000
H	  23.9442000000	  27.8708000000	  52.9611000000
H	  24.0463000000	  26.3258000000	  53.7548000000
O	  22.1522000000	  22.5987000000	  52.5968000000
O	  24.0614000000	  23.8306000000	  52.1227000000
C	  23.2216000000	  21.9011000000	  53.1602000000
C	  24.4963000000	  22.6277000000	  52.6195000000
C	  22.6929000000	  23.8212000000	  52.2596000000
H	  23.2602000000	  22.2643000000	  54.1644000000
H	  23.2521000000	  20.7733000000	  53.2013000000
H	  25.1661000000	  22.8079000000	  53.4774000000
H	  24.8979000000	  22.0476000000	  51.8347000000
H	  22.1513000000	  24.2592000000	  51.3858000000
H	  22.4042000000	  24.4809000000	  53.0735000000
