46

Li	  15.4568000000	  26.1559000000	  26.5872000000
N	  13.9767000000	  24.8018000000	  23.6196000000
S	  13.0970000000	  24.6805000000	  24.9206000000
O	  13.5394000000	  25.4896000000	  26.0683000000
O	  11.6660000000	  24.7079000000	  24.6247000000
C	  13.2361000000	  22.8885000000	  25.4120000000
F	  13.4291000000	  22.0657000000	  24.3697000000
F	  12.2401000000	  22.3914000000	  26.1177000000
F	  14.2691000000	  22.8504000000	  26.2043000000
S	  15.4629000000	  25.2612000000	  23.5877000000
O	  16.3916000000	  24.2697000000	  23.1833000000
O	  15.8343000000	  26.0963000000	  24.7091000000
C	  15.4698000000	  26.3653000000	  22.1380000000
F	  14.7427000000	  27.4473000000	  22.3549000000
F	  16.7312000000	  26.6753000000	  21.8956000000
F	  14.9707000000	  25.7403000000	  21.0559000000
N	  14.0480000000	  27.0668000000	  30.7375000000
S	  13.6673000000	  26.6012000000	  29.3097000000
O	  14.8029000000	  26.5578000000	  28.4000000000
O	  12.6029000000	  25.6337000000	  29.1907000000
C	  12.7665000000	  28.1395000000	  28.7332000000
F	  12.3580000000	  28.1824000000	  27.5059000000
F	  13.4939000000	  29.2239000000	  28.8453000000
F	  11.6402000000	  28.4514000000	  29.3758000000
S	  15.3565000000	  27.2817000000	  31.5000000000
O	  15.4248000000	  28.5183000000	  32.2531000000
O	  16.4973000000	  26.8161000000	  30.6833000000
C	  15.1522000000	  26.0036000000	  32.8243000000
F	  16.2456000000	  25.8150000000	  33.5002000000
F	  14.1533000000	  26.3988000000	  33.6443000000
F	  14.8066000000	  24.8367000000	  32.3110000000
N	  19.2304000000	  25.4955000000	  26.6423000000
S	  18.3543000000	  24.2637000000	  26.4992000000
O	  16.9315000000	  24.4546000000	  26.7251000000
O	  18.7254000000	  23.4731000000	  25.3413000000
C	  18.8123000000	  23.3329000000	  27.9594000000
F	  18.1159000000	  22.2235000000	  28.1271000000
F	  18.5877000000	  23.9101000000	  29.1457000000
F	  20.0831000000	  22.8432000000	  27.8951000000
S	  18.7669000000	  26.9521000000	  26.8467000000
O	  19.6880000000	  27.6241000000	  27.6770000000
O	  17.3530000000	  27.2577000000	  26.9234000000
C	  19.2612000000	  27.6303000000	  25.3064000000
F	  18.5185000000	  27.2818000000	  24.2986000000
F	  19.1765000000	  28.9794000000	  25.2994000000
F	  20.4436000000	  27.2799000000	  24.9879000000
