42

Li	  54.7089000000	  14.2609000000	  17.7553000000
N	  55.7598000000	  14.8313000000	  21.5108000000
S	  55.9788000000	  16.0452000000	  20.5937000000
O	  57.1943000000	  16.7269000000	  20.9599000000
O	  55.7636000000	  15.8359000000	  19.1622000000
C	  54.5649000000	  17.0942000000	  21.0858000000
F	  54.8058000000	  17.6188000000	  22.2989000000
F	  53.3482000000	  16.5286000000	  21.1079000000
F	  54.3688000000	  18.0972000000	  20.2873000000
S	  54.8167000000	  13.6305000000	  21.0220000000
O	  55.4862000000	  12.4048000000	  21.2601000000
O	  54.0940000000	  13.8157000000	  19.7987000000
C	  53.4867000000	  13.4444000000	  22.2949000000
F	  52.6160000000	  12.5507000000	  21.9952000000
F	  53.8782000000	  13.1371000000	  23.5224000000
F	  52.8028000000	  14.4633000000	  22.4488000000
N	  55.6864000000	  10.9753000000	  17.1135000000
S	  54.9619000000	  11.6241000000	  15.9411000000
O	  54.8283000000	  13.0334000000	  16.0190000000
O	  55.3549000000	  11.1389000000	  14.6341000000
C	  53.3072000000	  10.9640000000	  16.3474000000
F	  52.3673000000	  11.3956000000	  15.4979000000
F	  52.9460000000	  11.3676000000	  17.5187000000
F	  53.3392000000	   9.6524700000	  16.3412000000
S	  56.6621000000	  11.5918000000	  18.0764000000
O	  56.8211000000	  10.8027000000	  19.3014000000
O	  56.5261000000	  13.0119000000	  18.3176000000
C	  58.3029000000	  11.3829000000	  17.3522000000
F	  58.5914000000	  10.0821000000	  17.1260000000
F	  58.3286000000	  11.9903000000	  16.1525000000
F	  59.2700000000	  11.8977000000	  18.1237000000
O	  53.2460000000	  15.0902000000	  17.3950000000
O	  51.6162000000	  15.4798000000	  15.9630000000
C	  53.2518000000	  16.4800000000	  17.1811000000
C	  52.3600000000	  16.7065000000	  15.9958000000
C	  52.0294000000	  14.6456000000	  17.0199000000
H	  52.7758000000	  16.8876000000	  18.1340000000
H	  54.1965000000	  17.0092000000	  17.1391000000
H	  51.7507000000	  17.6014000000	  16.1120000000
H	  52.8676000000	  16.8456000000	  15.0123000000
H	  51.9959000000	  13.5946000000	  16.8289000000
H	  51.2692000000	  14.7755000000	  17.8759000000
