39

Li	  13.8091000000	   2.2787700000	  11.2292000000
O	  10.8680000000	   2.7870300000	   8.6058700000
O	  11.9516000000	   1.8204600000	  10.2434000000
C	  10.7016000000	   1.4396500000	   8.2667200000
C	  11.4688000000	   0.7252170000	   9.4338800000
C	  11.0926000000	   2.8520800000	   9.9699200000
H	   9.6403200000	   1.2658100000	   8.2868900000
H	  11.0153000000	   1.3486100000	   7.2390000000
H	  10.7530000000	   0.0831513391	   9.9408600000
H	  12.2235000000	   0.0720513391	   9.1285700000
H	  11.3777000000	   3.7988100000	  10.2245000000
H	  10.1516000000	   2.6618000000	  10.4981000000
O	  14.4307000000	  -1.6876486609	  12.1998000000
O	  14.1436000000	   0.4451513391	  11.8020000000
C	  13.1549000000	  -1.4133486609	  12.7440000000
C	  13.4642000000	   0.0914513391	  13.0030000000
C	  14.5759000000	  -0.7792486609	  11.2174000000
H	  12.2760000000	  -1.5355486609	  12.0943000000
H	  13.0262000000	  -1.9679486609	  13.6330000000
H	  12.5967000000	   0.7396340000	  13.1131000000
H	  14.0958000000	   0.3002513391	  13.8666000000
H	  15.6215000000	  -0.8459486609	  10.8051000000
H	  13.8880000000	  -0.9515486609	  10.3889000000
S	  14.2982000000	   1.3733000000	  16.3215000000
S	  14.9286000000	   2.6620600000	  17.9584000000
S	  13.4216000000	   3.7312700000	  18.9727000000
S	  11.9886000000	   5.8726700000	  14.6744000000
S	  11.8549000000	   4.0355500000	  13.5544000000
S	  13.8666000000	   3.3098100000	  13.3034000000
S	  11.4079000000	   5.6302900000	  16.6782000000
S	  13.0879000000	   5.5945100000	  17.9969000000
S	  17.2460000000	   4.8685900000	   2.6204400000
S	  17.3922000000	   4.6084100000	   4.6778100000
S	  18.3026000000	   2.7483700000	   5.2260600000
S	  15.1289000000	   1.0943300000	   8.1536800000
S	  15.6641000000	   2.3348800000	   9.7977100000
S	  14.3149000000	   3.9075500000	   9.8654300000
S	  16.7065000000	   0.4121513391	   7.0586700000
S	  16.8702000000	   1.1711200000	   5.1063100000
