50

Li	   6.5031200000	  41.1911000000	  41.8687000000
N	   6.1827400000	  43.4636000000	  45.6989000000
S	   5.2039900000	  42.4270000000	  46.3829000000
O	   5.0332100000	  41.1968000000	  45.6876000000
O	   5.4754200000	  42.2976000000	  47.8078000000
C	   3.6036200000	  43.3843000000	  46.2554000000
F	   3.3476200000	  43.7348000000	  45.0324000000
F	   3.7429600000	  44.4889000000	  46.8843000000
F	   2.5343600000	  42.7981000000	  46.6705000000
S	   7.0033200000	  43.3797000000	  44.3614000000
O	   6.6977300000	  42.2964000000	  43.4026000000
O	   8.3354400000	  43.8371000000	  44.5517000000
C	   6.3318800000	  44.7957000000	  43.4250000000
F	   6.4232800000	  45.9799000000	  44.1218000000
F	   6.8447000000	  44.9817000000	  42.2128000000
F	   5.0021800000	  44.6618000000	  43.2481000000
N	  10.2342000000	  41.9528000000	  39.6698000000
S	  11.0551000000	  41.8141000000	  40.9371000000
O	  11.5491000000	  43.0370000000	  41.5123000000
O	  10.6327000000	  40.7451000000	  41.8324000000
C	  12.6674000000	  41.1628000000	  40.2319000000
F	  13.5164000000	  40.9255000000	  41.2609000000
F	  13.1665000000	  42.0165000000	  39.3232000000
F	  12.4558000000	  39.9424000000	  39.7105000000
S	   8.6729200000	  42.2156000000	  39.5149000000
O	   7.9652100000	  42.2264000000	  40.7666000000
O	   7.9854600000	  41.5956000000	  38.4114000000
C	   8.7392400000	  43.9975000000	  38.9359000000
F	   7.5576300000	  44.5689000000	  38.7419000000
F	   9.4843500000	  44.6913000000	  39.7476000000
F	   9.4829600000	  44.1067000000	  37.8372000000
O	   5.0338700000	  41.4509000000	  40.7682000000
O	   2.9434300000	  42.2648000000	  40.4727000000
C	   4.7987500000	  41.5202000000	  39.3979000000
C	   3.2911400000	  41.4296000000	  39.4472000000
C	   4.0675800000	  42.2954000000	  41.3211000000
H	   5.2432100000	  42.3645000000	  38.9115000000
H	   5.2367700000	  40.5979000000	  38.9718000000
H	   2.7051600000	  41.8103000000	  38.6203000000
H	   2.9526500000	  40.4735000000	  39.7015000000
H	   3.8285000000	  42.0216000000	  42.3695000000
H	   4.3200900000	  43.3385000000	  41.1775000000
S	   4.6717700000	  30.3532000000	  41.4716000000
S	   4.9259600000	  31.9836000000	  42.8319000000
S	   3.1783500000	  33.0441000000	  43.0716000000
S	   5.6186900000	  37.0763000000	  43.8086000000
S	   5.9284900000	  39.0526000000	  42.9677000000
S	   7.8452500000	  39.3797000000	  42.0171000000
S	   3.6167800000	  36.3566000000	  43.9858000000
S	   3.3046600000	  34.3900000000	  44.6709000000
