61

Li	  17.6638000000	  21.5399000000	  30.7446000000
N	  15.3836000000	  17.9280000000	  31.0820000000
S	  15.5127000000	  19.1889000000	  30.1268000000
O	  15.9814000000	  20.3494000000	  30.9233000000
O	  16.1432000000	  18.9250000000	  28.8852000000
C	  13.8360000000	  19.6989000000	  29.7692000000
F	  13.8819000000	  20.8552000000	  29.1430000000
F	  13.0208000000	  19.8461000000	  30.8287000000
F	  13.1791000000	  18.8847000000	  28.9420000000
S	  16.2527000000	  16.5996000000	  31.0434000000
O	  16.1676000000	  15.8282000000	  32.2581000000
O	  17.4185000000	  16.6397000000	  30.1947000000
C	  15.1486000000	  15.6087000000	  29.9593000000
F	  14.9905000000	  16.1065000000	  28.7719000000
F	  15.5757000000	  14.3552000000	  29.7851000000
F	  13.9244000000	  15.5013000000	  30.4348000000
N	  21.2402000000	  24.3587000000	  30.0449000000
S	  20.6305000000	  24.8788000000	  28.6803000000
O	  20.1167000000	  23.8823000000	  27.7367000000
O	  19.8664000000	  26.1044000000	  28.7344000000
C	  22.1393000000	  25.4003000000	  27.8768000000
F	  22.6668000000	  26.3413000000	  28.5863000000
F	  21.9433000000	  25.7968000000	  26.6378000000
F	  23.0300000000	  24.3725000000	  27.7668000000
S	  20.8546000000	  23.0481000000	  30.8832000000
O	  21.7755000000	  21.9674000000	  30.7416000000
O	  19.5093000000	  22.6440000000	  30.9284000000
C	  21.0035000000	  23.6163000000	  32.6243000000
F	  19.9792000000	  24.2386000000	  33.1130000000
F	  21.2990000000	  22.6285000000	  33.4608000000
F	  21.9852000000	  24.4456000000	  32.7472000000
O	  15.9862000000	  23.2930000000	  34.4628000000
O	  17.0560000000	  22.2020000000	  32.7695000000
C	  16.2491000000	  22.0626000000	  35.0628000000
C	  16.9102000000	  21.2441000000	  33.8871000000
C	  16.7362000000	  23.4603000000	  33.3211000000
H	  16.8729000000	  22.2420000000	  35.9660000000
H	  15.4192000000	  21.4803000000	  35.4667000000
H	  17.8940000000	  20.8424000000	  34.1536000000
H	  16.2097000000	  20.4513000000	  33.6484000000
H	  16.0756000000	  24.0581000000	  32.6517000000
H	  17.6626000000	  24.0774000000	  33.4451000000
O	  18.7741000000	  19.9083000000	  31.2721000000
O	  19.8591000000	  18.1782000000	  30.4165000000
C	  19.6728000000	  19.4194000000	  32.2400000000
C	  20.6546000000	  18.4494000000	  31.6162000000
C	  19.3157000000	  19.4210000000	  30.1190000000
H	  20.1056000000	  20.2985000000	  32.7225000000
H	  19.0290000000	  18.8673000000	  32.9657000000
H	  21.6023000000	  18.9323000000	  31.2922000000
H	  20.8030000000	  17.5463000000	  32.2358000000
H	  18.5881000000	  19.2489000000	  29.3592000000
H	  20.0702000000	  20.1091000000	  29.6828000000
S	  17.3787000000	  22.1160000000	  28.6885000000
S	  16.3853000000	  23.4011000000	  29.9877000000
S	  17.1100000000	  25.4090000000	  29.8942000000
S	  13.8369000000	  26.4890000000	  33.5174000000
S	  12.3953000000	  27.9485000000	  33.8918000000
S	  10.5048000000	  27.4517000000	  33.0969000000
S	  15.4863000000	  27.1218000000	  32.4509000000
S	  15.5932000000	  26.7754000000	  30.3694000000
