38

Li	  37.1790000000	   2.8059800000	   7.1864100000
N	  33.7533000000	   0.4433513391	   7.9348800000
S	  35.0436000000	  -0.3465486609	   8.4643700000
O	  35.0411000000	  -1.7317486609	   8.1586700000
O	  36.3160000000	   0.3496513391	   8.4767300000
C	  34.5999000000	  -0.3096486609	  10.2790000000
F	  34.8003000000	   0.8576840000	  10.8559000000
F	  35.3544000000	  -1.1709486609	  10.9878000000
F	  33.3330000000	  -0.5946486609	  10.4401000000
S	  33.8130000000	   1.7519000000	   7.0891300000
O	  35.1415000000	   2.3659300000	   7.0093700000
O	  32.6854000000	   2.6991300000	   7.1979500000
C	  33.7080000000	   0.9455850000	   5.4634400000
F	  34.7926000000	   0.1076513391	   5.3310200000
F	  32.6089000000	   0.2563513391	   5.3058700000
F	  33.7943000000	   1.7714100000	   4.4135600000
O	  36.8635000000	   3.6189000000	   8.8347000000
O	  36.2280000000	   3.8127500000	  10.8858000000
C	  36.5176000000	   4.9503300000	   8.9977600000
C	  35.7864000000	   4.9947500000	  10.2930000000
C	  37.2310000000	   3.2776600000	  10.1075000000
H	  37.3846000000	   5.6146700000	   9.0581800000
H	  35.8830000000	   5.3873800000	   8.2567200000
H	  36.0919000000	   5.8470400000	  10.9527000000
H	  34.7293000000	   4.9981300000	  10.2372000000
H	  37.3136000000	   2.2610700000	  10.2686000000
H	  38.0620000000	   3.8208500000	  10.4605000000
O	  37.4559000000	   1.4111100000	   5.8983100000
O	  39.4431000000	   1.6620700000	   5.1218000000
C	  37.1701000000	   1.9330200000	   4.5876400000
C	  38.6155000000	   2.3012900000	   4.1204900000
C	  38.6331000000	   0.7347400000	   5.7337800000
H	  36.6060000000	   1.2824000000	   3.9137800000
H	  36.6283000000	   2.8797000000	   4.7156000000
H	  38.8297000000	   2.0452000000	   3.0924800000
H	  38.7371000000	   3.3933900000	   4.0961500000
H	  39.0236000000	   0.5697920000	   6.7031900000
H	  38.4384000000	  -0.1784486609	   5.2272600000
