43

Li	  19.8470000000	  33.6549000000	  57.6851000000
N	  16.6299000000	  35.3615000000	  55.2888000000
S	  17.0224000000	  36.7686000000	  55.8903000000
O	  15.8575000000	  37.3246000000	  56.5827000000
O	  18.2969000000	  36.9986000000	  56.4529000000
C	  17.1568000000	  37.8041000000	  54.3152000000
F	  18.3081000000	  37.5643000000	  53.6907000000
F	  17.1663000000	  39.1055000000	  54.5797000000
F	  16.1646000000	  37.6502000000	  53.4422000000
S	  17.7148000000	  34.2292000000	  54.9993000000
O	  18.3206000000	  33.6152000000	  56.1596000000
O	  18.5773000000	  34.5729000000	  53.9511000000
C	  16.6792000000	  32.8862000000	  54.3183000000
F	  16.2156000000	  33.2810000000	  53.1311000000
F	  17.3831000000	  31.8256000000	  54.0198000000
F	  15.6952000000	  32.5399000000	  55.1255000000
O	  20.9610000000	  35.2688000000	  56.9142000000
O	  22.7020000000	  36.0926000000	  55.6473000000
C	  21.9303000000	  35.8722000000	  57.8160000000
C	  22.9174000000	  36.7076000000	  56.8964000000
C	  21.3044000000	  35.8355000000	  55.6596000000
H	  21.6026000000	  36.5775000000	  58.5947000000
H	  22.4292000000	  35.1018000000	  58.2343000000
H	  22.6676000000	  37.7638000000	  56.8990000000
H	  23.9396000000	  36.7028000000	  57.2545000000
H	  21.0405000000	  35.1674000000	  54.8070000000
H	  20.6863000000	  36.7480000000	  55.5678000000
S	  21.6774000000	  32.5583000000	  57.4897000000
S	  22.2724000000	  32.1862000000	  55.4223000000
S	  21.9539000000	  30.1441000000	  54.9106000000
S	  19.3814000000	  26.3899000000	  54.1076000000
S	  20.9532000000	  25.1726000000	  54.8822000000
S	  21.0307000000	  23.3524000000	  53.7786000000
S	  20.1474000000	  28.0029000000	  52.9050000000
S	  20.0214000000	  29.7759000000	  54.0484000000
S	  18.8058000000	  33.0134000000	  59.2661000000
S	  18.9297000000	  35.1991000000	  59.5414896609
S	  17.0121000000	  35.9752000000	  59.7178366609
S	  13.8257000000	  38.0915000000	  63.3447586609
S	  14.2116000000	  38.7020000000	  65.3815986609
S	  12.5315000000	  38.3914000000	  66.7120686609
S	  15.0329000000	  36.4823000000	  62.7025386609
S	  16.6778000000	  37.0911000000	  61.5874386609
