39

Li	  21.8002000000	  38.3328000000	   3.4372500000
O	  23.1289000000	  36.9367000000	   2.7361300000
O	  24.7489000000	  35.8616000000	   1.5360600000
C	  23.5562000000	  35.8447000000	   3.5224600000
C	  24.7292000000	  35.2306000000	   2.8034100000
C	  24.2288000000	  37.0999000000	   1.8566900000
H	  23.6678000000	  36.2136000000	   4.5598700000
H	  22.6558000000	  35.1736000000	   3.3928400000
H	  25.7356000000	  35.4710000000	   3.1337300000
H	  24.6223000000	  34.1354000000	   2.6725400000
H	  23.9857000000	  37.6543000000	   1.0073800000
H	  25.0817000000	  37.6044000000	   2.3947000000
O	  20.7183000000	  37.1216000000	   4.6084400000
O	  21.2477000000	  35.7171000000	   6.2103000000
C	  19.8393000000	  36.0194000000	   4.3650600000
C	  20.0542000000	  35.1553000000	   5.6746300000
C	  21.0409000000	  37.0630000000	   5.9348700000
H	  18.7399000000	  36.2363000000	   4.1860100000
H	  20.2873000000	  35.4371000000	   3.5149000000
H	  19.2271000000	  35.2752000000	   6.4151200000
H	  20.1105000000	  34.1103000000	   5.5017800000
H	  22.0476000000	  37.4288000000	   6.2093100000
H	  20.3478000000	  37.5601000000	   6.5091600000
S	  23.5158000000	  33.1123000000	  -5.4609486609
S	  23.7160000000	  35.1703000000	  -5.6253486609
S	  21.9695000000	  36.0754000000	  -4.7740486609
S	  20.8077000000	  38.9909000000	  -1.3429486609
S	  21.5588000000	  39.2644000000	   0.5328100000
S	  20.0257000000	  39.0010000000	   1.9679500000
S	  22.3961000000	  38.9361000000	  -2.7754486609
S	  21.8814000000	  38.1172000000	  -4.7075486609
S	  31.6763000000	  44.9551000000	   2.9645400000
S	  31.2559000000	  44.1825000000	   4.9190900000
S	  30.9575000000	  42.0406000000	   5.0909700000
S	  26.4812000000	  39.9763000000	   4.3098100000
S	  24.6833000000	  39.4870000000	   5.3632500000
S	  22.9149000000	  39.9163000000	   4.4125300000
S	  27.5070000000	  41.7237000000	   4.8392300000
S	  29.1802000000	  41.5407000000	   6.0616200000
