57

Li	  25.6177000000	  23.5061000000	  27.4357000000
N	  22.8593000000	  22.1188000000	  24.0415000000
S	  22.9136000000	  20.8897000000	  23.0300000000
O	  22.6644000000	  21.2510000000	  21.6356000000
O	  24.0438000000	  20.0027000000	  23.3316000000
C	  21.3690000000	  20.0218000000	  23.4210000000
F	  21.3407000000	  18.8503000000	  22.9086000000
F	  20.3080000000	  20.6620000000	  22.9634000000
F	  21.2106000000	  19.8498000000	  24.6813000000
S	  24.1296000000	  22.9842000000	  24.4280000000
O	  25.2068000000	  22.8230000000	  23.4683000000
O	  24.4582000000	  22.9338000000	  25.8519000000
C	  23.6159000000	  24.6810000000	  24.0685000000
F	  22.6379000000	  25.0562000000	  24.8860000000
F	  24.6567000000	  25.4811000000	  24.1160000000
F	  23.1797000000	  24.7255000000	  22.8426000000
N	  28.2687000000	  21.5363000000	  25.3840000000
S	  28.4781000000	  23.0099000000	  25.8195000000
O	  29.1511000000	  23.8091000000	  24.7838000000
O	  27.3218000000	  23.5688000000	  26.4493000000
C	  29.6995000000	  22.8200000000	  27.1749000000
F	  29.9202000000	  23.9504000000	  27.8462000000
F	  30.8817000000	  22.5087000000	  26.7775000000
F	  29.2230000000	  21.9150000000	  28.0308000000
S	  28.0898000000	  21.0633000000	  23.9373000000
O	  27.8950000000	  22.1017000000	  22.9460000000
O	  27.3125000000	  19.8355000000	  23.8285000000
C	  29.7795000000	  20.4528000000	  23.5879000000
F	  29.8682000000	  19.1931000000	  23.9626000000
F	  30.0390000000	  20.4139000000	  22.2702000000
F	  30.7866000000	  21.1426000000	  24.0774000000
N	  24.5725000000	  19.6947000000	  28.5516000000
S	  25.6222000000	  20.2177000000	  27.5691000000
O	  25.5172000000	  19.7322000000	  26.2218000000
O	  25.8052000000	  21.6399000000	  27.7572000000
C	  27.0730000000	  19.3927000000	  28.1356000000
F	  26.9136000000	  18.0770000000	  28.0959000000
F	  27.4820000000	  19.6412000000	  29.3674000000
F	  28.1317000000	  19.5181000000	  27.3007000000
S	  23.1517000000	  19.0094000000	  28.3038000000
O	  22.9538000000	  18.4387000000	  26.9740000000
O	  22.0436000000	  19.7669000000	  28.8956000000
C	  23.2296000000	  17.4923000000	  29.3081000000
F	  22.3008000000	  16.5991000000	  29.0132000000
F	  24.3672000000	  16.8406000000	  29.2169000000
F	  23.1412000000	  17.8128000000	  30.5578000000
O	  25.1806000000	  24.9592000000	  28.6607000000
O	  25.9517000000	  26.4530000000	  27.2468000000
C	  26.4609000000	  25.3766000000	  29.1644000000
C	  27.0221000000	  26.3568000000	  28.1417000000
C	  24.8389000000	  26.0483000000	  27.8784000000
H	  26.4463000000	  25.8813000000	  30.1552000000
H	  27.0512000000	  24.4697000000	  29.1820000000
H	  27.3294000000	  27.3002000000	  28.6282000000
H	  27.9551000000	  26.0549000000	  27.5754000000
H	  24.0600000000	  25.8028000000	  27.1751000000
H	  24.2809000000	  26.7558000000	  28.4869000000
