50

Li	  42.9114000000	  55.8858000000	   2.4971400000
N	  45.3803000000	  58.0292000000	   1.0307800000
S	  44.0806000000	  57.7771000000	   0.1911513391
O	  44.4574000000	  57.3194000000	  -1.1120486609
O	  43.0520000000	  57.1761000000	   0.8959660000
C	  43.5424000000	  59.4807000000	  -0.0958486609
F	  42.3926000000	  59.5152000000	  -0.7572486609
F	  44.4120000000	  60.0941186609	  -0.8807486609
F	  43.4480000000	  60.1478386609	   1.0532300000
S	  45.6881000000	  57.8217000000	   2.5613300000
O	  47.0206000000	  57.3526000000	   2.7893500000
O	  44.6736000000	  57.0969000000	   3.2680000000
C	  45.6727000000	  59.4604000000	   3.3937200000
F	  45.8489000000	  59.4065000000	   4.7196100000
F	  46.6722000000	  60.2611186609	   2.9391800000
F	  44.5370000000	  60.1093686609	   3.2672000000
N	  44.8291000000	  52.4660000000	   0.7279480000
S	  43.6412000000	  53.4466000000	   0.2884513391
O	  43.3334000000	  54.3083000000	   1.3979100000
O	  43.8132000000	  54.0173000000	  -1.0042486609
C	  42.1796000000	  52.3531000000	   0.1350513391
F	  42.3555000000	  51.4673000000	  -0.7853486609
F	  41.0756000000	  53.0768000000	   0.0249513391
F	  41.9865000000	  51.6607000000	   1.2576100000
S	  46.0286000000	  52.8447000000	   1.5777300000
O	  45.8485000000	  53.9969000000	   2.4479400000
O	  47.3152000000	  52.6222000000	   0.9455000000
C	  45.9051000000	  51.4958000000	   2.7867400000
F	  46.7525000000	  51.7286000000	   3.7709800000
F	  44.6592000000	  51.3086000000	   3.3555800000
F	  46.2932000000	  50.3767000000	   2.2190300000
O	  42.1018000000	  54.6744000000	   6.2563900000
O	  42.7326000000	  54.5545000000	   4.1006800000
C	  41.4403000000	  53.5878000000	   5.6703200000
C	  42.3944000000	  53.2189000000	   4.5393900000
C	  43.0032000000	  55.1970000000	   5.3013900000
H	  41.2072000000	  52.9560000000	   6.4897200000
H	  40.5347000000	  53.8948000000	   5.1334800000
H	  43.1391000000	  52.5426000000	   4.9311400000
H	  41.8106000000	  52.7072000000	   3.7809700000
H	  42.8077000000	  56.2874000000	   5.3249300000
H	  44.0517000000	  55.0698000000	   5.5310500000
S	  33.2689000000	  57.2616000000	   4.4805700000
S	  34.2447000000	  57.0723000000	   6.3105400000
S	  34.7037000000	  54.9852000000	   6.4498500000
S	  37.5552000000	  54.9761000000	   2.2899400000
S	  39.6605000000	  54.7476000000	   2.2863100000
S	  40.5849000000	  56.4971000000	   2.8579100000
S	  36.6446000000	  53.6288000000	   3.7296300000
S	  36.6310000000	  54.4405000000	   5.7103700000
