46

Li	   4.3123200000	  30.0369000000	  17.6714000000
N	   3.2813300000	  29.9257000000	  22.0048000000
S	   3.9050900000	  28.5491000000	  22.1239000000
O	   4.7376900000	  28.0628000000	  20.9924000000
O	   4.4563200000	  28.2989000000	  23.4025000000
C	   2.3999900000	  27.5194000000	  21.9501000000
F	   2.7625300000	  26.2642000000	  22.1373000000
F	   1.9110200000	  27.5709000000	  20.7552000000
F	   1.4755400000	  27.7432000000	  22.8652000000
S	   3.0132300000	  30.7592000000	  20.6621000000
O	   1.7430700000	  31.4654000000	  20.4588000000
O	   3.6134700000	  30.1077000000	  19.5056000000
C	   4.1462600000	  32.1456000000	  20.8947000000
F	   4.0614400000	  32.9744000000	  19.8955000000
F	   3.9571000000	  32.7686000000	  22.0477000000
F	   5.4043900000	  31.8185000000	  20.9149000000
O	   7.5572700000	  32.0563000000	  15.5312000000
O	   6.1092200000	  31.2357000000	  17.0698000000
C	   7.9272000000	  32.7051000000	  16.7456000000
C	   7.0883800000	  31.9652000000	  17.7937000000
C	   6.7198000000	  31.0125000000	  15.7871000000
H	   8.8780200000	  32.5101000000	  17.0310000000
H	   7.8504300000	  33.8104000000	  16.6876000000
H	   7.7166000000	  31.2322000000	  18.2863000000
H	   6.6212400000	  32.6551000000	  18.4963000000
H	   6.0330700000	  31.0038000000	  14.9028000000
H	   7.4161100000	  30.2062000000	  15.7516000000
O	   7.3157600000	  27.6953000000	  17.0226000000
O	   5.3396400000	  28.4807000000	  17.5369000000
C	   6.4946000000	  27.0811000000	  16.1788000000
C	   5.1167800000	  27.3892000000	  16.6702000000
C	   6.5601900000	  28.1427000000	  18.1012000000
H	   6.6688100000	  27.6400000000	  15.2741000000
H	   6.6769100000	  26.0347000000	  15.9523000000
H	   4.4703300000	  27.6223000000	  15.7610000000
H	   4.8351600000	  26.5229000000	  17.2487000000
H	   6.3366900000	  27.2624000000	  18.7198000000
H	   7.1540400000	  28.8734000000	  18.6213000000
S	   0.3367513391	  33.6369000000	  18.0537000000
S	  -0.1815486609	  34.4028000000	  16.2121000000
S	  -1.3565486609	  33.0740000000	  15.2096000000
S	   1.9717700000	  29.7730000000	  13.9770000000
S	   2.5857900000	  29.5508000000	  15.9461000000
S	   2.7978900000	  31.4471000000	  16.8614000000
S	  -0.0608486609	  30.1547000000	  13.7564000000
S	  -0.4562486609	  32.2167000000	  13.5702000000
