42

Li	  10.6890000000	  37.2568000000	  37.4492000000
O	  13.3714000000	  36.1726000000	  40.3212000000
O	  11.9897000000	  36.3783000000	  38.5063000000
C	  13.2128000000	  34.9297000000	  39.8388000000
C	  11.9518000000	  35.0676000000	  39.0448000000
C	  12.9257000000	  37.0182000000	  39.2614000000
H	  14.0275000000	  34.6572000000	  39.1858000000
H	  13.1144000000	  34.1650000000	  40.5777000000
H	  12.0178000000	  34.2261000000	  38.3641000000
H	  11.1397000000	  34.9210000000	  39.7641000000
H	  12.3594000000	  37.8209000000	  39.7213000000
H	  13.7212000000	  37.3386000000	  38.6914000000
O	   8.8545200000	  37.4794000000	  37.5598000000
O	   6.8569300000	  36.9819000000	  36.7485000000
C	   8.1602400000	  36.7454000000	  38.5929000000
C	   6.6988700000	  36.5124000000	  38.0805000000
C	   7.8336200000	  38.0147000000	  36.8031000000
H	   8.5954000000	  35.7572000000	  38.7916000000
H	   8.1978800000	  37.3165000000	  39.3887000000
H	   6.2692400000	  35.5054000000	  38.2154000000
H	   6.0005100000	  37.1764000000	  38.5931000000
H	   7.3975500000	  38.9841000000	  37.1905000000
H	   8.2014200000	  38.3146000000	  35.8296000000
O	  11.2091000000	  38.9285000000	  36.8669000000
O	  13.1302000000	  39.8896000000	  36.0327000000
C	  11.3148000000	  40.2211000000	  37.4593000000
C	  12.3039000000	  40.9738000000	  36.5087000000
C	  12.2967000000	  38.7965000000	  35.9408000000
H	  10.3279000000	  40.6110000000	  37.4795000000
H	  11.7094000000	  40.2032000000	  38.4943000000
H	  11.7013000000	  41.6134000000	  35.8292000000
H	  12.9125000000	  41.7150000000	  36.9916000000
H	  12.9253000000	  37.8748000000	  35.9887000000
H	  11.8257000000	  38.8228000000	  34.9360000000
S	   0.2868513391	  35.6566000000	  31.8816000000
S	   2.4284300000	  35.8783000000	  31.5769000000
S	   3.4765300000	  34.3388000000	  32.6364000000
S	   8.0857800000	  33.4041000000	  34.8609000000
S	   9.0915300000	  34.5734000000	  36.2993000000
S	  10.8733000000	  35.5999000000	  35.8501000000
S	   5.9693000000	  33.4027000000	  35.2245000000
S	   5.1241900000	  34.9021000000	  33.9996000000
