28

Li	  49.0978000000	   7.0795400000	   9.1395400000
O	  46.2680000000	   7.4909900000	  11.9830000000
O	  47.5100000000	   7.1651100000	  10.1061000000
C	  46.3187000000	   8.7306700000	  11.3422000000
C	  46.7594000000	   8.3109300000	   9.9622200000
C	  46.8549000000	   6.5218100000	  11.1041000000
H	  45.3587000000	   9.1371400000	  11.5249000000
H	  47.0492000000	   9.3660300000	  11.8460000000
H	  45.8992000000	   8.1009900000	   9.3533100000
H	  47.3365000000	   9.1245800000	   9.4073400000
H	  47.4769000000	   5.8677000000	  11.7549000000
H	  46.0483000000	   5.9978900000	  10.5682000000
S	  50.0140000000	   8.9878500000	   8.4473400000
S	  49.0064000000	   9.0241400000	   6.6282600000
S	  47.4428000000	  10.3472000000	   6.6835800000
S	  43.0980000000	  11.3916000000	   5.2248300000
S	  42.1329000000	  11.9442000000	   3.4781800000
S	  42.3021000000	  14.0097000000	   2.9038500000
S	  44.4354000000	   9.7981000000	   4.9120500000
S	  45.4980000000	   9.4534500000	   6.6849000000
S	  50.1325000000	  13.9536000000	   8.9443700000
S	  50.1768000000	  13.4888000000	  11.0748000000
S	  49.5755000000	  11.4723000000	  11.3038000000
S	  51.4468000000	   6.9273600000	  10.8666000000
S	  50.4855000000	   5.1202900000	  10.2875000000
S	  49.2088000000	   5.0459100000	   8.5756900000
S	  50.3804000000	   8.1858300000	  12.1589000000
S	  50.9424000000	  10.2036000000	  12.2970000000
