68

Li	  28.5715000000	  37.4431000000	   4.5940400000
N	  24.1705000000	  37.4098000000	   0.5335280000
S	  23.1269000000	  38.5965000000	   0.5660040000
O	  21.7471000000	  38.2217000000	   0.3949513391
O	  23.4605000000	  39.6196000000	   1.4635400000
C	  23.5414000000	  39.3410000000	  -1.0650486609
F	  22.8353000000	  40.4815000000	  -1.3063486609
F	  23.3444000000	  38.5613000000	  -2.1274486609
F	  24.8402000000	  39.6415000000	  -1.0460486609
S	  24.6603000000	  36.6489000000	   1.7584900000
O	  25.0648000000	  35.2767000000	   1.4911200000
O	  24.1461000000	  36.9703000000	   3.0474100000
C	  26.3352000000	  37.4070000000	   1.5842200000
F	  26.9717000000	  37.0365000000	   0.4464513391
F	  26.2784000000	  38.7340000000	   1.6109600000
F	  27.1618000000	  37.0361000000	   2.5293900000
N	  26.2318000000	  34.3243000000	   5.2151300000
S	  24.7663000000	  33.9864000000	   4.7744400000
O	  23.8450000000	  34.9719000000	   5.2256900000
O	  24.5577000000	  33.4050000000	   3.4515700000
C	  24.5390000000	  32.6385000000	   5.9928500000
F	  25.2444000000	  31.5096000000	   5.8654100000
F	  23.3013000000	  32.1979000000	   6.1032400000
F	  24.8115000000	  33.1571000000	   7.2046700000
S	  27.5550000000	  34.3887000000	   4.3030000000
O	  28.1646000000	  35.6666000000	   4.5162800000
O	  27.3823000000	  33.8853000000	   2.9470400000
C	  28.5973000000	  33.2554000000	   5.2307800000
F	  28.0129000000	  32.0954000000	   5.2426600000
F	  29.8081000000	  33.0304000000	   4.7152800000
F	  28.8379000000	  33.6497000000	   6.4850300000
N	  31.6330000000	  38.9595000000	   1.7401900000
S	  30.8701000000	  40.3820000000	   1.6992300000
O	  29.8892000000	  40.4924000000	   2.7475100000
O	  31.6043000000	  41.5104000000	   1.3089400000
C	  29.7159000000	  39.8684000000	   0.3107513391
F	  28.8827000000	  38.9319000000	   0.6608320000
F	  30.4092000000	  39.4780000000	  -0.7175486609
F	  29.0381000000	  40.9567000000	  -0.0204486609
S	  31.2892000000	  37.7605000000	   2.7026200000
O	  29.9277000000	  37.7542000000	   3.1204400000
O	  32.3227000000	  37.4563000000	   3.6964900000
C	  31.4488000000	  36.3907000000	   1.5177400000
F	  31.1069000000	  35.2387000000	   2.0972800000
F	  30.7526000000	  36.5269000000	   0.4414513391
F	  32.6959000000	  36.3247000000	   1.1408000000
O	  30.8444000000	  38.5043000000	   7.7889500000
O	  29.3949000000	  37.6895000000	   6.2897600000
C	  30.7314000000	  37.1734000000	   8.1598800000
C	  30.0821000000	  36.5852000000	   6.9495100000
C	  29.7050000000	  38.7436000000	   7.0679400000
H	  31.8024000000	  36.8490000000	   8.4113200000
H	  30.1939000000	  37.0142000000	   9.0921100000
H	  30.8997000000	  36.1831000000	   6.3795800000
H	  29.4199000000	  35.7850000000	   7.1223600000
H	  28.8671000000	  39.1777000000	   7.5726200000
H	  29.9976000000	  39.4340000000	   6.3336200000
O	  25.1806000000	  38.2068000000	   5.6438200000
O	  27.2173000000	  38.6098000000	   5.0379300000
C	  25.0679000000	  39.3637000000	   4.8053600000
C	  26.5704000000	  39.7570000000	   4.7170000000
C	  26.4654000000	  38.1407000000	   6.1042100000
H	  24.6060000000	  39.0932000000	   3.8893300000
H	  24.4686000000	  40.1180000000	   5.1936900000
H	  26.7575000000	  40.0941000000	   3.6896800000
H	  26.7668000000	  40.6135000000	   5.3550800000
H	  26.5808000000	  38.7449000000	   7.0408000000
H	  26.7495000000	  37.0780000000	   6.3663800000
