53

Li	  13.5253000000	   7.2332700000	  23.5518000000
N	  11.7765000000	   3.9479300000	  21.6796000000
S	  10.2985000000	   3.5549200000	  21.5470000000
O	  10.0648000000	   3.0438000000	  20.2312000000
O	   9.7196500000	   2.8027200000	  22.6539000000
C	   9.4717600000	   5.1862600000	  21.5647000000
F	   8.2782900000	   5.1946600000	  20.9168000000
F	  10.1632000000	   6.1366600000	  21.0257000000
F	   9.2822000000	   5.5146500000	  22.8256000000
S	  12.6822000000	   4.2294600000	  22.9432000000
O	  11.9666000000	   4.0334200000	  24.1727000000
O	  13.4705000000	   5.3969500000	  22.9069000000
C	  13.8591000000	   2.8917700000	  22.9685000000
F	  14.6452000000	   3.0062900000	  24.0676000000
F	  13.2003000000	   1.6768900000	  22.9670000000
F	  14.7292000000	   2.9630200000	  21.9758000000
N	  13.6483000000	   8.8126900000	  27.0209000000
S	  14.2162000000	   7.3182800000	  26.7007000000
O	  13.5342000000	   6.8498300000	  25.5164000000
O	  15.6349000000	   7.1211300000	  26.9758000000
C	  13.3435000000	   6.3113200000	  28.0004000000
F	  12.0627000000	   6.0210300000	  27.7957000000
F	  13.4499000000	   6.8933100000	  29.1688000000
F	  13.9553000000	   5.1861400000	  28.1539000000
S	  14.3270000000	  10.1424000000	  27.4143000000
O	  14.9872000000	  10.8442000000	  26.3120000000
O	  15.0757000000	  10.0106000000	  28.6714000000
C	  12.8531000000	  11.2197000000	  27.8561000000
F	  11.9714000000	  11.1109000000	  26.9667000000
F	  12.2347000000	  10.8858000000	  29.0270000000
F	  13.0970000000	  12.5218000000	  27.9221000000
O	  16.8722000000	   7.5803900000	  21.6306000000
O	  15.1808000000	   7.7334400000	  23.2085000000
C	  16.9040000000	   8.8058800000	  22.3183000000
C	  16.1840000000	   8.6270400000	  23.6289000000
C	  15.8164000000	   6.9020100000	  22.2063000000
H	  17.8788000000	   9.1004900000	  22.6572000000
H	  16.4633000000	   9.6434200000	  21.8433000000
H	  16.7189000000	   8.0664300000	  24.4019000000
H	  15.7077000000	   9.4920100000	  23.9923000000
H	  15.1769000000	   6.5091000000	  21.4327000000
H	  16.2772000000	   6.0377200000	  22.6545000000
O	  11.4022000000	   7.9414000000	  23.2518000000
O	  13.0293000000	   9.3676800000	  23.5860000000
C	  11.6547000000	   8.5457500000	  21.9768000000
C	  12.8006000000	   9.5305800000	  22.2092000000
C	  11.7222000000	   8.9495400000	  24.0673000000
H	  12.0097000000	   7.7910100000	  21.2506000000
H	  10.7376000000	   9.0312900000	  21.5392000000
H	  13.8127000000	   9.3322100000	  21.7253000000
H	  12.5038000000	  10.5768000000	  22.0557000000
H	  10.9656000000	   9.7273300000	  23.8143000000
H	  11.6104000000	   8.6608000000	  25.0969000000
