62

Li	  19.7488000000	  24.8255000000	  51.7672000000
S	  22.5434000000	  22.7896000000	  51.4774000000
O	  21.3398000000	  23.6611000000	  51.4977000000
O	  22.4052000000	  21.3712000000	  51.9073000000
C	  23.8588000000	  23.6766000000	  52.3990000000
C	  23.0374000000	  22.8786000000	  49.7463000000
C	  23.5658000000	  23.8037000000	  53.9356000000
C	  21.8837000000	  22.6315000000	  48.7861000000
C	  24.8375000000	  24.1637000000	  54.6800000000
C	  22.3810000000	  22.3136000000	  47.3789000000
H	  24.7466000000	  22.9994000000	  52.3557000000
H	  24.1167000000	  24.6864000000	  51.9880000000
H	  23.4218000000	  23.8258000000	  49.4754000000
H	  23.8058000000	  22.0874000000	  49.6289000000
H	  22.7488000000	  24.4967000000	  54.1346000000
H	  23.2162000000	  22.9296000000	  54.4140000000
H	  21.2323000000	  21.9248000000	  49.2082000000
H	  21.3532000000	  23.6075000000	  48.7576000000
H	  25.1741000000	  25.0790000000	  54.1889000000
H	  24.6883000000	  24.3382000000	  55.7164000000
H	  25.7072000000	  23.5054000000	  54.4460000000
H	  22.9391000000	  23.2095000000	  47.0247000000
H	  23.0731000000	  21.4904000000	  47.4035000000
H	  21.5739000000	  22.0719000000	  46.6495000000
S	  16.8128000000	  26.2963000000	  52.3207000000
O	  16.0122000000	  25.9410000000	  53.5280000000
O	  18.1860000000	  25.7579000000	  52.2720000000
C	  16.9814000000	  28.1723000000	  52.3016000000
C	  15.7934000000	  25.9899000000	  50.8942000000
C	  17.5167000000	  28.6584000000	  53.6693000000
C	  15.8700000000	  24.5546000000	  50.4603000000
C	  17.4827000000	  30.1690000000	  53.9953000000
C	  15.0581000000	  24.3217000000	  49.1814000000
H	  17.6341000000	  28.4002000000	  51.4662000000
H	  16.0081000000	  28.5881000000	  52.0546000000
H	  14.7337000000	  26.1482000000	  51.1215000000
H	  16.0363000000	  26.6044000000	  50.0400000000
H	  16.9585000000	  28.2446000000	  54.5106000000
H	  18.5455000000	  28.2815000000	  53.7027000000
H	  16.8595000000	  24.2730000000	  50.2953000000
H	  15.4261000000	  23.8254000000	  51.2309000000
H	  18.0118000000	  30.7241000000	  53.1781000000
H	  16.4532000000	  30.4779000000	  53.9348000000
H	  17.8382000000	  30.4854000000	  55.0045000000
H	  13.9772000000	  24.5607000000	  49.4591000000
H	  15.4306000000	  25.0858000000	  48.4076000000
H	  15.0732000000	  23.2258000000	  48.9487000000
N	  20.4807000000	  27.5412000000	  49.5192000000
S	  19.2282000000	  26.7177000000	  49.0710000000
O	  19.1534000000	  25.3725000000	  49.6180000000
O	  18.0168000000	  27.4767000000	  48.8669000000
C	  19.7660000000	  26.3286000000	  47.3698000000
F	  18.8339000000	  25.6205000000	  46.7523000000
F	  20.8584000000	  25.5502000000	  47.3762000000
F	  19.9576000000	  27.4081000000	  46.7061000000
S	  21.0882000000	  27.6929000000	  50.9336000000
O	  21.0126000000	  26.5354000000	  51.8042000000
O	  20.8729000000	  28.9801000000	  51.6076000000
C	  22.9062000000	  27.6727000000	  50.4855000000
F	  23.1374000000	  26.6543000000	  49.6228000000
F	  23.2471000000	  28.7879000000	  49.8173000000
F	  23.8147000000	  27.6181000000	  51.4470000000
