66

Li	  38.4700000000	  34.6459000000	  37.6714000000
O	  35.6702000000	  35.7529000000	  35.4797000000
O	  37.9092000000	  35.2628000000	  35.6422000000
C	  36.3434000000	  36.9389000000	  36.0873000000
C	  37.8074000000	  36.6843000000	  35.7909000000
C	  36.6549000000	  34.8951000000	  35.0462000000
H	  35.8989000000	  37.8881000000	  35.7705000000
H	  36.1651000000	  36.9800000000	  37.1371000000
H	  38.1015000000	  37.1714000000	  34.9223000000
H	  38.4165000000	  37.1344000000	  36.5202000000
H	  36.3148000000	  33.9654000000	  35.4177000000
H	  36.7255000000	  34.8716000000	  33.9501000000
S	  41.5105000000	  34.8941000000	  36.2599000000
O	  42.6009000000	  34.2417000000	  36.9392000000
O	  40.2486000000	  35.0575000000	  37.0418000000
C	  41.1192000000	  33.9874000000	  34.7524000000
C	  41.9708000000	  36.5058000000	  35.7356000000
C	  40.4526000000	  32.6072000000	  34.9940000000
C	  42.2516000000	  37.5081000000	  36.8736000000
C	  41.3244000000	  31.3916000000	  35.3870000000
C	  41.0813000000	  38.1066000000	  37.7250000000
H	  40.5161000000	  34.5997000000	  34.1348000000
H	  42.1675000000	  33.8331000000	  34.3843000000
H	  42.9232000000	  36.4543000000	  35.1929000000
H	  41.2082000000	  36.8176000000	  35.0988000000
H	  39.7088000000	  32.7344000000	  35.7575000000
H	  39.9907000000	  32.2360000000	  34.1387000000
H	  42.9463000000	  37.0870000000	  37.5395000000
H	  42.8267000000	  38.3009000000	  36.3880000000
H	  40.6525000000	  30.5176000000	  35.4831000000
H	  42.1595000000	  31.2234000000	  34.6427000000
H	  41.7618000000	  31.5105000000	  36.3163000000
H	  40.5949000000	  37.3877000000	  38.3746000000
H	  41.4753000000	  38.8922000000	  38.3420000000
H	  40.2763000000	  38.5007000000	  37.1291000000
S	  38.3591000000	  36.4980000000	  40.2672000000
O	  39.6061000000	  37.1307000000	  40.7792000000
O	  38.4395000000	  35.7594000000	  39.0137000000
C	  37.1044000000	  37.7956000000	  40.0364000000
C	  37.6592000000	  35.3201000000	  41.5697000000
C	  36.8377000000	  38.8860000000	  41.1695000000
C	  38.4809000000	  34.0595000000	  41.8250000000
C	  37.9677000000	  39.8986000000	  41.4751000000
C	  37.7586000000	  33.0373000000	  42.6993000000
H	  37.4167000000	  38.3185000000	  39.2144000000
H	  36.2080000000	  37.2404000000	  39.8392000000
H	  37.3791000000	  35.8936000000	  42.5051000000
H	  36.7519000000	  34.9801000000	  41.0867000000
H	  35.8842000000	  39.4308000000	  40.9594000000
H	  36.6646000000	  38.3140000000	  42.1439000000
H	  38.6960000000	  33.6946000000	  40.8808000000
H	  39.4970000000	  34.3832000000	  42.2268000000
H	  38.4444000000	  40.4985000000	  40.6943000000
H	  37.5738000000	  40.5839000000	  42.2473000000
H	  38.8603000000	  39.4188000000	  41.9973000000
H	  37.6046000000	  33.5896000000	  43.6261000000
H	  36.8143000000	  32.6905000000	  42.2984000000
H	  38.3062000000	  32.1065000000	  42.8186000000
S	  36.9209000000	  33.1668000000	  38.4118000000
S	  39.0197000000	  32.7683000000	  38.5117000000
S	  39.5266000000	  30.7335000000	  38.2351000000
S	  44.0147000000	  31.7300000000	  39.2301000000
S	  45.1671000000	  32.4055000000	  37.6029000000
S	  45.8676000000	  34.4131000000	  37.8747000000
S	  42.8323000000	  29.9883000000	  38.6976000000
S	  40.8699000000	  30.0453000000	  39.5710000000
