46

Li	  49.6668000000	   5.0748100000	  25.0906000000
O	  51.7908000000	   4.2490100000	  28.5213000000
O	  50.7083000000	   4.4112800000	  26.5606000000
C	  52.7245000000	   4.5963300000	  27.5688000000
C	  52.0051000000	   4.4409100000	  26.2141000000
C	  50.6841000000	   3.8712700000	  27.7863000000
H	  53.1253000000	   5.6280100000	  27.7029000000
H	  53.5057000000	   3.8933800000	  27.6096000000
H	  52.2371000000	   5.3153000000	  25.6202000000
H	  52.3954000000	   3.6079900000	  25.6352000000
H	  50.7303000000	   2.7817500000	  27.7744000000
H	  49.8770000000	   4.2991500000	  28.3754000000
O	  50.9038000000	   8.4255600000	  26.8160000000
O	  49.7416000000	   6.7911400000	  25.8093000000
C	  50.0691000000	   7.7861500000	  27.7834000000
C	  48.9747000000	   7.1597600000	  26.8942000000
C	  50.5783000000	   7.8932800000	  25.5894000000
H	  50.5370000000	   6.9979000000	  28.2937000000
H	  49.6256000000	   8.4972200000	  28.4273000000
H	  48.4196000000	   6.3843600000	  27.3851000000
H	  48.1900000000	   7.8399800000	  26.5417000000
H	  50.1084000000	   8.6745700000	  24.9859000000
H	  51.4674000000	   7.5751500000	  25.0557000000
S	  51.1777000000	   5.0904500000	  22.3069000000
O	  50.2539000000	   4.8085300000	  23.4138000000
O	  52.5185000000	   5.5198400000	  22.6210000000
C	  50.4533000000	   6.3847700000	  21.2958000000
C	  51.2778000000	   3.7339600000	  21.0238000000
C	  49.5956000000	   7.4198600000	  22.0013000000
C	  52.2398000000	   2.5527200000	  21.5549000000
C	  48.1765000000	   6.9340300000	  22.4529000000
C	  52.3953000000	   1.3564300000	  20.6101000000
H	  51.1771000000	   6.8587900000	  20.6068000000
H	  49.7288000000	   5.8722600000	  20.6414000000
H	  50.2606000000	   3.4877200000	  20.7648000000
H	  51.7908000000	   4.1285400000	  20.1670000000
H	  50.1085000000	   7.9424900000	  22.7988000000
H	  49.2886000000	   8.2474400000	  21.3597000000
H	  53.2432000000	   2.9900900000	  21.8678000000
H	  51.8165000000	   2.1685600000	  22.4756000000
H	  47.4911000000	   6.7952900000	  21.6687000000
H	  48.1581000000	   6.0177900000	  23.0733000000
H	  47.7193000000	   7.7191100000	  23.0697000000
H	  53.2867000000	   1.6045200000	  19.9750000000
H	  52.5653000000	   0.3943878996	  21.1133000000
H	  51.4987000000	   1.3427500000	  19.9777000000
