20

Li	  49.0022000000	  27.7582000000	  37.1006000000
O	  45.3616000000	  27.0158000000	  35.3110000000
O	  47.1587000000	  27.3475000000	  36.6256000000
C	  45.4573000000	  25.9502000000	  36.2169000000
C	  46.8883000000	  25.9446000000	  36.6898000000
C	  46.0929000000	  28.0370000000	  35.9584000000
H	  44.7557000000	  26.0531000000	  37.0012000000
H	  45.2002000000	  25.1207000000	  35.6315000000
H	  46.9921000000	  25.4767000000	  37.6693000000
H	  47.5381000000	  25.5459000000	  35.8904000000
H	  46.4788000000	  28.6300000000	  35.2040000000
H	  45.5608000000	  28.5886000000	  36.6714000000
S	  51.7898000000	  19.3836000000	  32.2886000000
S	  49.7693000000	  20.0291000000	  32.8977000000
S	  49.1587000000	  21.7905000000	  31.9173000000
S	  49.0896000000	  26.8500000000	  33.8350000000
S	  50.6594000000	  28.0747000000	  34.4679000000
S	  50.0712000000	  29.1451000000	  36.1292000000
S	  49.4232000000	  25.3921000000	  32.4509000000
S	  49.5214000000	  23.4244000000	  33.2665000000
