66

Li	  47.2350000000	  14.6202000000	   3.7367400000
O	  49.1984000000	  14.0466000000	   4.0735900000
O	  51.2634000000	  13.8579000000	   4.8840800000
C	  49.3931000000	  12.6642000000	   4.3056700000
C	  50.4484000000	  12.7867000000	   5.3740700000
C	  50.4567000000	  14.5841000000	   4.0463800000
H	  48.4929000000	  12.0843000000	   4.6108700000
H	  49.8897000000	  12.2000000000	   3.4087400000
H	  50.1052000000	  13.0543000000	   6.3587900000
H	  51.1299000000	  11.8800000000	   5.6127800000
H	  50.9049000000	  14.5747000000	   3.0711400000
H	  50.3534000000	  15.5833000000	   4.4746700000
S	  45.8584000000	  14.0220000000	   1.1614100000
O	  44.6215000000	  14.6797000000	   1.6243500000
O	  47.1797000000	  14.0188000000	   1.8754300000
C	  46.1717000000	  14.6259000000	  -0.5224121004
C	  45.4591000000	  12.2187000000	   0.7817030000
C	  46.7374000000	  16.0272000000	  -0.5025121004
C	  45.3441000000	  11.4266000000	   2.0958100000
C	  47.3882000000	  16.4300000000	  -1.8741121004
C	  45.3070000000	   9.9373900000	   1.8598600000
H	  46.8478000000	  13.9824000000	  -1.0318121004
H	  45.2195000000	  14.6428000000	  -1.1066121004
H	  44.5612000000	  12.1877000000	   0.1903878996
H	  46.3325000000	  11.7485000000	   0.1458878996
H	  46.1527000000	  16.8387000000	  -0.2031121004
H	  47.4868000000	  16.0488000000	   0.2782878996
H	  46.1915000000	  11.6548000000	   2.6775500000
H	  44.4205000000	  11.6936000000	   2.6119800000
H	  46.6926000000	  16.4945000000	  -2.6478121004
H	  47.8110000000	  17.4207000000	  -1.6547121004
H	  48.2749000000	  15.7489000000	  -2.1518121004
H	  44.5273000000	   9.5359200000	   1.1585200000
H	  46.2717000000	   9.6368000000	   1.5809900000
H	  45.1160000000	   9.5391900000	   2.8918800000
S	  44.6315000000	  13.6169000000	   5.2737200000
O	  43.6732000000	  13.7464000000	   4.1570500000
O	  46.0536000000	  13.6194000000	   4.9167900000
C	  44.2668000000	  12.1054000000	   6.2291200000
C	  44.4184000000	  14.9259000000	   6.4818000000
C	  44.6435000000	  10.8126000000	   5.6335600000
C	  43.0363000000	  14.8499000000	   7.2132400000
C	  44.2111000000	   9.5982000000	   6.4076900000
C	  42.6324000000	  16.1043000000	   7.9027400000
H	  44.6880000000	  12.2676000000	   7.1814800000
H	  43.2079000000	  12.1722000000	   6.3834900000
H	  45.2059000000	  14.9272000000	   7.1948300000
H	  44.5177000000	  15.8900000000	   5.9484800000
H	  44.3815000000	  10.7636000000	   4.6185200000
H	  45.7037000000	  10.9018000000	   5.4589800000
H	  42.2768000000	  14.5289000000	   6.5757200000
H	  43.0472000000	  14.0263000000	   7.9325500000
H	  44.5771000000	   8.6603000000	   5.9012200000
H	  44.5563000000	   9.6164500000	   7.4473600000
H	  43.1317000000	   9.5948500000	   6.4129100000
H	  42.5731000000	  17.0811000000	   7.3314600000
H	  41.6052000000	  15.9486000000	   8.2909400000
H	  43.2690000000	  16.2966000000	   8.8317800000
S	  47.3117000000	  14.1771000000	  13.9830000000
S	  48.1509000000	  13.7981000000	  12.0941000000
S	  48.8586000000	  15.5251000000	  11.2266000000
S	  48.7072000000	  17.0778000000	   6.7640000000
S	  47.0104000000	  17.7759000000	   5.5272700000
S	  46.8919000000	  16.6786000000	   3.6955900000
S	  48.3184000000	  15.2549000000	   7.7862900000
S	  49.5830000000	  15.0456000000	   9.3830500000
