32

Li	  10.9041000000	  36.3820000000	  19.7093000000
S	  11.4009000000	  39.5237000000	  20.7321000000
O	  10.2410000000	  40.2580000000	  21.2530000000
O	  11.2635000000	  38.2031000000	  20.1293000000
C	  12.5919000000	  39.3337000000	  22.0420000000
C	  12.3041000000	  40.6696000000	  19.6657000000
C	  13.9508000000	  38.6251000000	  21.6785000000
C	  11.4419000000	  41.2403000000	  18.5462000000
C	  15.0176000000	  38.7252000000	  22.7619000000
C	  12.1797000000	  41.9394000000	  17.4705000000
H	  12.8217000000	  40.2833000000	  22.3347000000
H	  12.0162000000	  38.8355000000	  22.7935000000
H	  12.5491000000	  41.5378000000	  20.2839000000
H	  13.2039000000	  40.3768000000	  19.2285000000
H	  13.7046000000	  37.6025000000	  21.3301000000
H	  14.3371000000	  39.0416000000	  20.8124000000
H	  11.0203000000	  40.3215000000	  18.0320000000
H	  10.5362000000	  41.7832000000	  18.8190000000
H	  14.7810000000	  37.9212000000	  23.4803000000
H	  16.0036000000	  38.4090000000	  22.6228000000
H	  15.1312000000	  39.6323000000	  23.2735000000
H	  11.5062000000	  42.0885000000	  16.6432000000
H	  12.6504000000	  42.7928000000	  17.9617000000
H	  12.8565000000	  41.2186000000	  17.0812000000
S	   9.0346100000	  36.2466000000	  18.6722000000
S	   8.4416600000	  35.6721000000	  20.6030000000
S	   6.5767400000	  36.4348000000	  21.0387000000
S	   8.3923200000	  40.0278000000	  24.2648000000
S	   7.3467400000	  41.7788000000	  24.8168000000
S	   7.1975700000	  42.1283000000	  26.8842000000
S	   7.0918800000	  38.3728000000	  23.8618000000
S	   6.6690300000	  38.4202000000	  21.8049000000
