81

Li	  32.4067000000	   7.7562600000	  45.2629000000
O	  32.2374000000	   9.3991400000	  44.7236000000
O	  33.2112000000	  11.3992000000	  45.1016000000
C	  31.2247000000	  10.3796000000	  44.6627000000
C	  31.8548000000	  11.5824000000	  45.3149000000
C	  33.4021000000	  10.0592000000	  45.1386000000
H	  30.8905000000	  10.6045000000	  43.6383000000
H	  30.3568000000	   9.9533000000	  45.2148000000
H	  31.3495000000	  12.5377000000	  44.9361000000
H	  31.6574000000	  11.3961000000	  46.3260000000
H	  33.5924000000	   9.8630400000	  46.1941000000
H	  34.2758000000	   9.6690700000	  44.7374000000
S	  33.7128000000	   5.7656800000	  43.0320000000
O	  34.7974000000	   4.8602200000	  43.5173000000
O	  33.0705000000	   6.6715500000	  43.9546000000
C	  32.3742000000	   4.7619900000	  42.2297000000
C	  34.4186000000	   6.6879000000	  41.6069000000
C	  30.9878000000	   5.4893800000	  42.1828000000
C	  33.5845000000	   7.9840000000	  41.2585000000
C	  29.7971000000	   4.5984900000	  41.8815000000
C	  34.1153000000	   8.6098200000	  39.9573000000
H	  32.7217000000	   4.4056300000	  41.1833000000
H	  32.3286000000	   3.8975900000	  42.8941000000
H	  35.5069000000	   6.8262700000	  41.8388000000
H	  34.4838000000	   5.9419200000	  40.9207000000
H	  30.9124000000	   5.7938600000	  43.2518000000
H	  31.0464000000	   6.4223000000	  41.7138000000
H	  32.5259000000	   7.7976600000	  41.1060000000
H	  33.6171000000	   8.6828200000	  42.0782000000
H	  29.4748000000	   3.8012900000	  42.6247000000
H	  28.9636000000	   5.2181200000	  41.8734000000
H	  29.7890000000	   4.2622300000	  40.8684000000
H	  34.5196000000	   7.7755000000	  39.3108000000
H	  33.3675000000	   9.1148500000	  39.3193000000
H	  34.8814000000	   9.3383500000	  40.2854000000
S	  29.3291000000	   6.5146200000	  45.8725000000
O	  28.8296000000	   5.2148900000	  45.6213000000
O	  30.7019000000	   6.8522400000	  45.5013000000
C	  29.1546000000	   6.8790600000	  47.6526000000
C	  28.2261000000	   7.7379600000	  45.1746000000
C	  30.1373000000	   5.9707500000	  48.3342000000
C	  28.3355000000	   7.7814400000	  43.7236000000
C	  29.8758000000	   5.7852500000	  49.8548000000
C	  27.3584000000	   8.8886900000	  43.1890000000
H	  29.3759000000	   7.9146200000	  47.8233000000
H	  28.1510000000	   6.7633200000	  48.0950000000
H	  27.1557000000	   7.6575200000	  45.5441000000
H	  28.4295000000	   8.7815400000	  45.4940000000
H	  30.1022000000	   4.9318100000	  47.9421000000
H	  31.1822000000	   6.3523200000	  48.2708000000
H	  29.2847000000	   8.1458400000	  43.3917000000
H	  28.1330000000	   6.8332900000	  43.2568000000
H	  28.8647000000	   5.4529500000	  49.9808000000
H	  30.6374000000	   5.1190300000	  50.2016000000
H	  30.0283000000	   6.7028900000	  50.3842000000
H	  27.6263000000	   9.7844100000	  43.7482000000
H	  27.4005000000	   8.9178000000	  42.0745000000
H	  26.3369000000	   8.5181100000	  43.4645000000
S	  34.4256000000	   7.3198200000	  47.9021000000
O	  33.3388000000	   7.3370900000	  46.8784000000
O	  35.6442000000	   7.9905700000	  47.6739000000
C	  34.9384000000	   5.5901800000	  48.2105000000
C	  33.7580000000	   7.9129500000	  49.5133000000
C	  34.9424000000	   4.7651500000	  46.8577000000
C	  33.2947000000	   9.3647400000	  49.4723000000
C	  33.6193000000	   4.0054700000	  46.4154000000
C	  31.8713000000	   9.6064500000	  49.0489000000
H	  35.9717000000	   5.7558600000	  48.6473000000
H	  34.2868000000	   5.1840800000	  48.8990000000
H	  32.9181000000	   7.3032200000	  49.7677000000
H	  34.5807000000	   7.7495900000	  50.1948000000
H	  35.2213000000	   5.4777300000	  46.0619000000
H	  35.7735000000	   4.0453100000	  46.9419000000
H	  33.3977000000	   9.6463700000	  50.5290000000
H	  34.0173000000	   9.9273300000	  48.8992000000
H	  33.8911000000	   3.2064400000	  45.6654000000
H	  33.3217000000	   3.3983500000	  47.3024000000
H	  32.8679000000	   4.6714800000	  45.9156000000
H	  31.8956000000	   9.6541300000	  47.9466000000
H	  31.1087000000	   8.8583300000	  49.4057000000
H	  31.3968000000	  10.5490000000	  49.2475000000
