40

Li	  20.8411000000	  43.5763000000	  50.0644000000
S	  20.8976000000	  45.7082000000	  52.4483000000
O	  21.0089000000	  44.6694000000	  51.4325000000
O	  21.4087000000	  45.4639000000	  53.8098000000
C	  19.1578000000	  46.3921000000	  52.4809000000
C	  21.6483000000	  47.2010000000	  51.7596000000
C	  18.1290000000	  45.3184000000	  52.6471000000
C	  23.1700000000	  47.0704000000	  51.8926000000
C	  18.1519000000	  44.5897000000	  54.0080000000
C	  23.8474000000	  48.1285000000	  50.9791000000
H	  19.0781000000	  47.2583000000	  53.1225000000
H	  18.8981000000	  46.7945000000	  51.5179000000
H	  21.2670000000	  47.2887000000	  50.7671000000
H	  21.1834000000	  48.0207000000	  52.2764000000
H	  17.1149000000	  45.7402000000	  52.4268000000
H	  18.2548000000	  44.5513000000	  51.8666000000
H	  23.4142000000	  47.1157000000	  52.9080000000
H	  23.3884000000	  46.0979000000	  51.4582000000
H	  19.1726000000	  44.2617000000	  54.3247000000
H	  17.8124000000	  45.3226000000	  54.7484000000
H	  17.4272000000	  43.7814000000	  53.9982000000
H	  23.5558000000	  47.8978000000	  49.9759000000
H	  23.5695000000	  49.1240000000	  51.0664000000
H	  24.9110000000	  47.9861000000	  50.9610000000
S	  21.7367000000	  44.7951000000	  48.5010000000
S	  19.5353000000	  44.5824000000	  48.3499000000
S	  18.9841000000	  44.8924000000	  46.2890000000
S	  18.0800000000	  49.0276000000	  43.3879000000
S	  16.6705000000	  50.5164000000	  43.7943000000
S	  14.7067000000	  49.7939000000	  43.6242000000
S	  18.8761000000	  48.3429000000	  45.2591000000
S	  17.8310000000	  46.6103000000	  45.8266000000
S	  20.9406000000	  41.5502000000	  50.5482000000
S	  19.4575000000	  41.9859000000	  51.9942000000
S	  17.5413000000	  41.0359000000	  51.8492000000
S	  14.5915000000	  44.5638000000	  53.3132000000
S	  14.6480000000	  44.2316000000	  55.4253000000
S	  12.7988000000	  44.6426000000	  56.3745000000
S	  14.4118000000	  42.7221000000	  52.2831000000
S	  16.2069000000	  42.4744000000	  51.1672000000
