50

Li	  47.9370000000	  27.2535000000	  29.5906000000
O	  48.9225000000	  26.1291000000	  32.3655000000
O	  49.5346000000	  27.0547000000	  30.4033000000
C	  49.5606000000	  25.1387000000	  31.6445000000
C	  50.1154000000	  25.7588000000	  30.3281000000
C	  49.4401000000	  27.2605000000	  31.8079000000
H	  50.3592000000	  24.8152000000	  32.3078000000
H	  48.9132000000	  24.3411000000	  31.4083000000
H	  51.1889000000	  25.8730000000	  30.2377000000
H	  49.9184000000	  25.2169000000	  29.3756000000
H	  48.6731000000	  28.0373000000	  32.0653000000
H	  50.4241000000	  27.5153000000	  32.2296000000
S	  45.4615000000	  25.6900000000	  30.6563000000
O	  45.2643000000	  24.7362000000	  29.5423000000
O	  46.5090000000	  26.6607000000	  30.5170000000
C	  45.6239000000	  24.8306000000	  32.2567000000
C	  43.9724000000	  26.7321000000	  30.8046000000
C	  44.4458000000	  23.9540000000	  32.5812000000
C	  43.5895000000	  27.2584000000	  29.4158000000
C	  44.8928000000	  22.8750000000	  33.5429000000
C	  42.1999000000	  28.0888000000	  29.4009000000
H	  46.5557000000	  24.2864000000	  32.1368000000
H	  45.6694000000	  25.6451000000	  32.9933000000
H	  43.1412000000	  26.1102000000	  31.1256000000
H	  44.1298000000	  27.5706000000	  31.5837000000
H	  43.5286000000	  24.4910000000	  32.9345000000
H	  44.1258000000	  23.4373000000	  31.6599000000
H	  44.3869000000	  27.8408000000	  28.9531000000
H	  43.5570000000	  26.4186000000	  28.7475000000
H	  45.7331000000	  22.3724000000	  33.1827000000
H	  45.1942000000	  23.2939000000	  34.4788000000
H	  44.2281000000	  22.0706000000	  33.8063000000
H	  42.2062000000	  28.8537000000	  30.2028000000
H	  42.1429000000	  28.6388000000	  28.4569000000
H	  41.3479000000	  27.4103000000	  29.4868000000
N	  47.2384000000	  30.5828000000	  27.4387000000
S	  46.1147000000	  30.3330000000	  28.4429000000
O	  44.8889000000	  30.0883000000	  27.8365000000
O	  46.5775000000	  29.4822000000	  29.5424000000
C	  45.7416000000	  31.9937000000	  29.1602000000
F	  45.6687000000	  32.8950000000	  28.1870000000
F	  46.6912000000	  32.4526000000	  29.9233000000
F	  44.5658000000	  32.0532000000	  29.7805000000
S	  48.4287000000	  29.6193000000	  27.0805000000
O	  48.5418000000	  29.4892000000	  25.6776000000
O	  48.5351000000	  28.4278000000	  27.8874000000
C	  49.8776000000	  30.5581000000	  27.3849000000
F	  49.8773000000	  31.7093000000	  26.7535000000
F	  50.1470000000	  30.7678000000	  28.6790000000
F	  50.9278000000	  30.0367000000	  26.9701000000
