50

Li	  26.0446000000	  32.7675000000	  30.3586000000
O	  23.7988000000	  34.8796000000	  28.1559000000
O	  25.1276000000	  34.2262000000	  29.7336000000
C	  23.2710000000	  35.5833000000	  29.2342000000
C	  24.1042000000	  34.9943000000	  30.3576000000
C	  25.1171000000	  34.6684000000	  28.4539000000
H	  23.4520000000	  36.6267000000	  29.0176000000
H	  22.2127000000	  35.6258000000	  29.2474000000
H	  24.5128000000	  35.7560000000	  31.0317000000
H	  23.5504000000	  34.3609000000	  30.9987000000
H	  25.6438000000	  33.9049000000	  27.8074000000
H	  25.6035000000	  35.6966000000	  28.3325000000
S	  28.2839000000	  31.6469000000	  28.3499000000
O	  28.6204000000	  32.7059000000	  27.3569000000
O	  27.3600000000	  31.9332000000	  29.4371000000
C	  29.9088000000	  31.1629000000	  29.1053000000
C	  27.9638000000	  30.0666000000	  27.4870000000
C	  30.5757000000	  32.4509000000	  29.8129000000
C	  27.1100000000	  29.0889000000	  28.3260000000
C	  30.9715000000	  32.1204000000	  31.2152000000
C	  25.6125000000	  29.4854000000	  28.1137000000
H	  29.7174000000	  30.3250000000	  29.8178000000
H	  30.5783000000	  30.7858000000	  28.3523000000
H	  27.3834000000	  30.3475000000	  26.5358000000
H	  28.9074000000	  29.5877000000	  27.1709000000
H	  31.4299000000	  32.8466000000	  29.1949000000
H	  29.7716000000	  33.2131000000	  29.8217000000
H	  27.2177000000	  28.0255000000	  27.9735000000
H	  27.3344000000	  29.1405000000	  29.4064000000
H	  31.5582000000	  31.2207000000	  31.2975000000
H	  31.4896000000	  32.9125000000	  31.6344000000
H	  30.1318000000	  31.9419000000	  31.8446000000
H	  25.2936000000	  30.5959000000	  28.2089000000
H	  25.1006000000	  28.9630000000	  27.2477000000
H	  25.1656000000	  29.0092000000	  28.9809000000
N	  25.9634000000	  31.5226000000	  33.2651000000
S	  24.8588000000	  30.9160000000	  32.2694000000
O	  23.5872000000	  30.8007000000	  32.8830000000
O	  24.8980000000	  31.4507000000	  30.9161000000
C	  25.4143000000	  29.1800000000	  32.1282000000
F	  26.6122000000	  29.0072000000	  31.7038000000
F	  24.6760000000	  28.3534000000	  31.3992000000
F	  25.4589000000	  28.6096000000	  33.3604000000
S	  26.7748000000	  32.9035000000	  33.2085000000
O	  26.9437000000	  33.4390000000	  31.9115000000
O	  27.9515000000	  32.9111000000	  34.0520000000
C	  25.6203000000	  33.9734000000	  34.1429000000
F	  24.4879000000	  34.2494000000	  33.4590000000
F	  25.2100000000	  33.4509000000	  35.2561000000
F	  26.1544000000	  35.1759000000	  34.3329000000
