54

Li	  53.4454000000	  24.1320000000	   6.2299000000
O	  54.8696000000	  21.8942000000	   9.6320900000
O	  54.4919000000	  22.9909000000	   7.7208800000
C	  56.1184000000	  22.1759000000	   9.0891400000
C	  55.8847000000	  23.2714000000	   8.0853900000
C	  53.9967000000	  22.0190000000	   8.6186500000
H	  56.8427000000	  22.5041000000	   9.8687500000
H	  56.5616000000	  21.2544000000	   8.7097500000
H	  55.9833000000	  24.2512000000	   8.6409000000
H	  56.4985000000	  23.3312000000	   7.1765100000
H	  53.9313000000	  21.1595000000	   7.9805100000
H	  53.1190000000	  22.4172000000	   8.9380600000
O	  52.0488000000	  23.0509000000	   6.1214000000
O	  51.8310000000	  20.8948000000	   6.1819900000
C	  50.9698000000	  22.7891000000	   7.0209800000
C	  50.7978000000	  21.2744000000	   7.0608200000
C	  52.0300000000	  21.9510000000	   5.3060900000
H	  51.0361000000	  23.1305000000	   8.0098500000
H	  50.0753000000	  23.2773000000	   6.6554000000
H	  50.7728000000	  20.7792000000	   8.0199600000
H	  49.8648000000	  21.0335000000	   6.5771600000
H	  51.1506000000	  21.9739000000	   4.6778400000
H	  52.9425000000	  21.8871000000	   4.6908300000
S	  56.2864000000	  25.2354000000	   4.5383400000
O	  55.1647000000	  24.4728000000	   5.1819700000
O	  57.3756000000	  25.7520000000	   5.3963400000
C	  55.5167000000	  26.5189000000	   3.5140200000
C	  56.9693000000	  23.9716000000	   3.3629000000
C	  56.5524000000	  27.4767000000	   3.0290300000
C	  57.9346000000	  23.1719000000	   4.2779200000
C	  56.0107000000	  28.3623000000	   1.8214100000
C	  58.5438000000	  22.0200000000	   3.5812500000
H	  54.9729000000	  25.8499000000	   2.7929700000
H	  54.6541000000	  27.0074000000	   4.0544800000
H	  56.2359000000	  23.3360000000	   2.9569000000
H	  57.6341000000	  24.4797000000	   2.5842500000
H	  56.8378000000	  28.1107000000	   3.8330300000
H	  57.5128000000	  27.0304000000	   2.7568800000
H	  58.6834000000	  23.9533000000	   4.4967800000
H	  57.4302000000	  22.9364000000	   5.2093100000
H	  55.2819000000	  28.9850000000	   2.2841100000
H	  56.7464000000	  29.0011000000	   1.2949800000
H	  55.5201000000	  27.7977000000	   1.0711400000
H	  59.3872000000	  21.6048000000	   4.1784200000
H	  57.8658000000	  21.2147000000	   3.5533700000
H	  59.0329000000	  22.0994000000	   2.5627600000
S	  52.1538000000	  18.2404000000	  11.7205000000
S	  52.5011000000	  20.1662000000	  11.0335000000
S	  52.0589000000	  21.7275000000	  12.3767000000
S	  53.2671000000	  25.0834000000	   9.4370900000
S	  52.5785000000	  26.6902000000	   8.3682800000
S	  52.3592000000	  26.1355000000	   6.3455600000
S	  52.4327000000	  24.9754000000	  11.3265000000
S	  51.1045000000	  23.3614000000	  11.4626000000
