31

Li	  46.1608000000	  19.4439000000	  15.6344000000
O	  46.7187000000	  17.6294000000	  15.5882000000
O	  48.4590000000	  16.4036000000	  14.7861000000
C	  47.3246000000	  16.9471000000	  16.6707000000
C	  48.1768000000	  15.7970000000	  16.0541000000
C	  47.2800000000	  17.0536000000	  14.4579000000
H	  48.0468000000	  17.5583000000	  17.1667000000
H	  46.5826000000	  16.5867000000	  17.3539000000
H	  49.0727000000	  15.7581000000	  16.5935000000
H	  47.6692000000	  14.8410000000	  16.1567000000
H	  46.5652000000	  16.4008000000	  14.0070000000
H	  47.3498000000	  17.8071000000	  13.6531000000
O	  46.4631000000	  20.5083000000	  19.4390000000
O	  46.6661000000	  19.7681000000	  17.3405000000
C	  47.8897000000	  20.3564000000	  19.2314000000
C	  47.9511000000	  20.2297000000	  17.7253000000
C	  45.8981000000	  19.6662000000	  18.4891000000
H	  48.4143000000	  21.1873000000	  19.7258000000
H	  48.3085000000	  19.4432000000	  19.7020000000
H	  48.1390000000	  21.2337000000	  17.3397000000
H	  48.6399000000	  19.4706000000	  17.3195000000
H	  45.8614000000	  18.6831000000	  18.9790000000
H	  44.8808000000	  19.8426000000	  18.1498000000
S	  47.4200000000	  20.7601000000	  14.3916000000
S	  46.5339000000	  20.0625000000	  12.7040000000
S	  47.7555000000	  20.2740000000	  10.9573000000
S	  46.0125000000	  23.9728000000	   7.4693800000
S	  47.3663000000	  25.4924000000	   7.1084200000
S	  46.8001000000	  27.2333000000	   8.0254700000
S	  46.9851000000	  22.2545000000	   8.1690400000
S	  47.6797000000	  22.2574000000	  10.1625000000
