78

Li	   6.4989800000	  24.0005000000	  14.8011000000
S	   7.9127800000	  26.5675000000	  16.4195000000
O	   7.6910900000	  25.9962000000	  17.7762000000
O	   7.3762400000	  25.7881000000	  15.2702000000
C	   9.7076800000	  26.7791000000	  16.2711000000
C	   7.1670200000	  28.1951000000	  16.2904000000
C	  10.6135000000	  25.5448000000	  16.2118000000
C	   5.6575400000	  28.0711000000	  16.6429000000
C	  12.0512000000	  26.0048000000	  16.2164000000
C	   5.0893600000	  29.5071000000	  16.7197000000
H	   9.9091800000	  27.4201000000	  15.4345000000
H	   9.8836000000	  27.5138000000	  17.1060000000
H	   7.6604600000	  28.8744000000	  16.9772000000
H	   7.4211700000	  28.4537000000	  15.3036000000
H	  10.4128000000	  24.7754000000	  16.9580000000
H	  10.4722000000	  25.0467000000	  15.2462000000
H	   5.0099700000	  27.4770000000	  16.0235000000
H	   5.4736800000	  27.6478000000	  17.6240000000
H	  12.2560000000	  26.4934000000	  17.2222000000
H	  12.7950000000	  25.3045000000	  16.1391000000
H	  12.2107000000	  26.7809000000	  15.5006000000
H	   5.1133200000	  29.8805000000	  15.6760000000
H	   4.0753400000	  29.5239000000	  17.0567000000
H	   5.6805400000	  30.1264000000	  17.4718000000
S	   7.1454400000	  24.6802000000	  11.6092000000
O	   7.0630800000	  23.9176000000	  12.8844000000
O	   6.4338900000	  25.9830000000	  11.4639000000
C	   6.5731100000	  23.6119000000	  10.3346000000
C	   8.8499100000	  25.0521000000	  11.2378000000
C	   5.1153600000	  23.1113000000	  10.7076000000
C	   9.3561000000	  25.6793000000	  12.4679000000
C	   4.2797500000	  23.0581000000	   9.4411900000
C	  10.7628000000	  26.3204000000	  12.3567000000
H	   6.5098200000	  24.1603000000	   9.3984700000
H	   7.2889100000	  22.8408000000	  10.1938000000
H	   9.3509200000	  24.1485000000	  11.0294000000
H	   8.8381700000	  25.7150000000	  10.3701000000
H	   5.2901500000	  22.0820000000	  11.0316000000
H	   4.6640900000	  23.7871000000	  11.4159000000
H	   8.6712000000	  26.5025000000	  12.7208000000
H	   9.3309000000	  24.9144000000	  13.1764000000
H	   3.2640900000	  22.7184000000	   9.7097200000
H	   4.0661400000	  24.0466000000	   8.8759400000
H	   4.6187700000	  22.4241000000	   8.6315100000
H	  10.9118000000	  27.0458000000	  13.1240000000
H	  11.5831000000	  25.6830000000	  12.5341000000
H	  10.9346000000	  26.7492000000	  11.3833000000
S	   8.9678100000	  21.8500000000	  14.6318000000
O	   7.9859100000	  22.8448000000	  15.1111000000
O	   9.8393300000	  22.1068000000	  13.4803000000
C	   8.0772500000	  20.2335000000	  14.2312000000
C	  10.0902000000	  21.4988000000	  15.9957000000
C	   6.9686000000	  20.3181000000	  13.1858000000
C	  10.9480000000	  20.2290000000	  15.9188000000
C	   6.3716700000	  18.9117000000	  12.8166000000
C	  11.9692000000	  20.0721000000	  17.0925000000
H	   8.8481500000	  19.5267000000	  13.9427000000
H	   7.6610400000	  19.8902000000	  15.1656000000
H	  10.6486000000	  22.4459000000	  16.2231000000
H	   9.3443900000	  21.4231000000	  16.8255000000
H	   6.1447500000	  20.9042000000	  13.5311000000
H	   7.2780300000	  20.7920000000	  12.2842000000
H	  10.2504000000	  19.4158000000	  15.9385000000
H	  11.5078000000	  20.2145000000	  14.9715000000
H	   6.2936500000	  18.3792000000	  13.7138000000
H	   5.4748200000	  18.9599000000	  12.2600000000
H	   7.1554100000	  18.3436000000	  12.1996000000
H	  12.8091000000	  19.3502000000	  16.9219000000
H	  12.4691000000	  21.0175000000	  17.2562000000
H	  11.4437000000	  19.9740000000	  18.0431000000
S	   4.3860400000	  23.2254000000	  14.6801000000
S	   5.1929000000	  23.5308000000	  16.6139000000
S	   3.7105200000	  24.4138000000	  17.8102000000
S	  -0.8823954922	  23.6674000000	  19.0639000000
S	  -2.6217954922	  22.7544000000	  18.3551000000
S	  -4.3500954922	  23.9685000000	  18.7760000000
S	   0.7814360000	  22.4877000000	  18.7404000000
S	   2.7124500000	  23.3668000000	  19.3408000000
