70

Li	  45.5102000000	  18.5372000000	   4.3986400000
S	  45.1983000000	  21.0477000000	   2.4386100000
O	  44.7778000000	  20.3916000000	   1.1711900000
O	  45.6594000000	  20.1200000000	   3.4961600000
C	  43.7903000000	  22.1047000000	   3.0202800000
C	  46.5451000000	  22.2656000000	   2.0038000000
C	  43.2453000000	  23.0300000000	   2.0913100000
C	  47.8397000000	  21.5533000000	   1.3912000000
C	  41.9926000000	  23.6679000000	   2.6608300000
C	  48.7731000000	  22.5763000000	   0.7670490000
H	  42.9205000000	  21.3873000000	   3.2440000000
H	  44.1924000000	  22.6716000000	   3.8802000000
H	  46.1065000000	  22.9584000000	   1.2490500000
H	  46.8456000000	  22.6901000000	   2.9004500000
H	  43.9867000000	  23.7683000000	   1.7423100000
H	  42.8549000000	  22.5014000000	   1.1518300000
H	  48.4898000000	  20.9775000000	   2.1360900000
H	  47.5038000000	  20.8696000000	   0.6844210000
H	  42.0866000000	  24.0141000000	   3.6869800000
H	  41.6493000000	  24.5526000000	   2.1486800000
H	  41.1842000000	  22.9401000000	   2.7353700000
H	  49.6373000000	  22.0409000000	   0.3096878996
H	  48.3772000000	  23.3059000000	   0.0172878996
H	  49.1215000000	  23.1841000000	   1.5831300000
S	  47.7727000000	  16.3051000000	   4.1336100000
O	  47.1485000000	  17.5777000000	   3.8314100000
O	  48.7046000000	  16.2236000000	   5.2748900000
C	  48.6675000000	  15.7833000000	   2.6078500000
C	  46.5422000000	  14.9739000000	   4.2609700000
C	  50.0272000000	  16.4866000000	   2.4179300000
C	  45.4657000000	  15.1708000000	   5.3217300000
C	  49.9251000000	  17.9105000000	   2.0524500000
C	  44.4207000000	  14.0157000000	   5.2929200000
H	  48.9423000000	  14.7626000000	   2.7558100000
H	  47.9317000000	  15.9085000000	   1.7588800000
H	  46.0559000000	  14.7126000000	   3.3165500000
H	  47.2135000000	  14.1447000000	   4.5112000000
H	  50.7763000000	  16.2948000000	   3.2290000000
H	  50.4231000000	  16.0440000000	   1.4914000000
H	  45.9527000000	  15.1218000000	   6.3268600000
H	  44.9994000000	  16.1312000000	   5.2928300000
H	  50.9353000000	  18.1790000000	   1.7819900000
H	  49.2526000000	  17.9572000000	   1.1565300000
H	  49.5866000000	  18.5233000000	   2.8881300000
H	  43.9081000000	  13.9495000000	   4.3578200000
H	  44.9360000000	  13.0712000000	   5.5139000000
H	  43.5699000000	  14.2565000000	   5.9226700000
S	  46.5511000000	  18.3301000000	   7.4086800000
O	  45.6628000000	  18.4628000000	   6.2530400000
O	  47.1964000000	  17.0442000000	   7.6069700000
C	  45.5232000000	  18.7372000000	   8.8689400000
C	  47.8579000000	  19.6445000000	   7.3342700000
C	  44.6994000000	  19.9799000000	   8.6215700000
C	  48.4802000000	  19.4596000000	   5.9612000000
C	  43.7093000000	  20.1024000000	   9.7476900000
C	  49.4808000000	  20.5839000000	   5.7294600000
H	  44.8138000000	  17.8703000000	   9.0863900000
H	  46.0925000000	  18.8361000000	   9.7577700000
H	  47.3192000000	  20.5536000000	   7.4829000000
H	  48.5091000000	  19.4545000000	   8.1572800000
H	  45.3708000000	  20.8538000000	   8.5435400000
H	  44.2320000000	  19.8834000000	   7.6673700000
H	  49.0055000000	  18.5117000000	   6.0761900000
H	  47.8083000000	  19.4572000000	   5.1761500000
H	  44.2475000000	  20.2061000000	  10.6443000000
H	  43.1777000000	  20.9876000000	   9.5765700000
H	  42.9613000000	  19.2800000000	   9.8704100000
H	  50.1651000000	  20.7610000000	   6.6080300000
H	  50.1782000000	  20.3828000000	   4.9307600000
H	  48.9588000000	  21.5410000000	   5.5452200000
