28

Li	  45.5748000000	  22.6399000000	  11.3488000000
O	  46.1493000000	  22.9605000000	  13.0221000000
O	  46.3775000000	  24.5634000000	  14.3513000000
C	  47.1720000000	  22.3974000000	  13.8108000000
C	  47.1651000000	  23.5556000000	  14.8762000000
C	  46.3396000000	  24.3058000000	  13.0848000000
H	  46.7791000000	  21.4605000000	  14.1484000000
H	  48.0857000000	  22.2654000000	  13.1716000000
H	  46.8779000000	  23.1595000000	  15.8873000000
H	  48.1865000000	  23.8898000000	  15.0095000000
H	  47.2955000000	  24.5979000000	  12.5072000000
H	  45.4392000000	  24.8158000000	  12.6601000000
S	  46.6020000000	  23.2631000000	   9.6896800000
S	  45.4018000000	  22.5966000000	   8.0255700000
S	  46.5214000000	  21.4029000000	   6.6704400000
S	  46.6023000000	  25.3597000000	   4.0457400000
S	  44.6755000000	  25.9016000000	   4.4013900000
S	  44.3850000000	  27.9167000000	   4.6886600000
S	  47.1611000000	  23.2217000000	   3.7604400000
S	  47.8240000000	  22.5914000000	   5.6233800000
S	  43.2637000000	  23.0379000000	  11.4866000000
S	  43.6761000000	  20.9856000000	  11.9750000000
S	  44.8466000000	  20.0569000000	  10.5235000000
S	  49.0042000000	  16.9469000000	  12.0317000000
S	  48.5097000000	  15.2122000000	  10.8390000000
S	  49.3815000000	  15.2858000000	   8.9174700000
S	  47.2214000000	  18.0614000000	  12.4412000000
S	  46.8680000000	  19.8102000000	  11.2952000000
