24

Li	  23.4216000000	   4.2420000000	  29.0710000000
N	  21.9741000000	   8.0627400000	  30.8614000000
S	  21.7923000000	   7.2299100000	  32.1796000000
O	  20.8082000000	   6.2160700000	  32.0508000000
O	  23.0083000000	   7.0059200000	  32.9374000000
C	  20.9558000000	   8.4695500000	  33.2452000000
F	  20.8532000000	   8.1086200000	  34.4683000000
F	  19.7807000000	   8.8291900000	  32.7314000000
F	  21.7189000000	   9.5883000000	  33.2183000000
S	  22.5990000000	   7.4673700000	  29.5771000000
O	  22.0860000000	   8.1399400000	  28.3702000000
O	  22.8588000000	   6.0215100000	  29.6170000000
C	  24.2129000000	   8.3330300000	  29.6975000000
F	  24.6906000000	   8.3442500000	  30.9247000000
F	  25.2241000000	   7.9393600000	  28.9892000000
F	  24.0280000000	   9.6116900000	  29.4159000000
S	  23.2409000000	   2.0505500000	  29.5980000000
S	  21.5606000000	   3.1733900000	  29.9027000000
S	  20.3600000000	   3.0769400000	  28.2213000000
S	  23.4353000000	   5.7131800000	  25.9067000000
S	  24.8841000000	   4.3679000000	  26.4183000000
S	  25.5259000000	   4.3436000000	  28.3758000000
S	  21.6524000000	   4.6570500000	  25.4081000000
S	  20.2579000000	   4.8198300000	  26.9821000000
