28

Li	  38.2178000000	  26.8927000000	  58.2317000000
O	  37.7053000000	  26.1205000000	  59.8470167399
O	  37.0601000000	  26.0056000000	  62.0182467399
C	  36.5070000000	  25.3495000000	  59.9250267399
C	  36.3520000000	  24.9575000000	  61.3410167399
C	  37.7025000000	  26.7957000000	  61.0323367399
H	  35.6372000000	  25.8661000000	  59.6065767399
H	  36.5853000000	  24.5339000000	  59.1571000000
H	  35.3105000000	  24.9175000000	  61.5796467399
H	  36.8050000000	  23.9443000000	  61.5613167399
H	  38.7741000000	  26.9322000000	  61.2579567399
H	  37.0793000000	  27.7176000000	  60.8942667399
S	  40.3041000000	  26.9173000000	  58.0308000000
S	  40.7306000000	  24.8353000000	  57.7927000000
S	  39.3168000000	  23.7368000000	  58.7431000000
S	  41.8670000000	  25.2548000000	  62.6403267399
S	  42.2444000000	  26.9900000000	  61.5999467399
S	  43.7461000000	  26.7840000000	  60.1506367399
S	  39.9558000000	  24.4859000000	  62.2545767399
S	  40.0176000000	  23.0336000000	  60.6937067399
S	  37.1578000000	  26.6173000000	  56.4767000000
S	  36.5133000000	  28.2287000000	  57.7206000000
S	  37.5681000000	  30.0118000000	  57.4605000000
S	  37.9966000000	  30.4575000000	  62.3795967399
S	  39.4155000000	  30.8405000000	  63.9127067399
S	  40.1834000000	  28.9187000000	  64.5923967399
S	  38.4184000000	  31.4490000000	  60.5617367399
S	  39.1054000000	  30.2165000000	  59.0111000000
