53

Li	  35.7653000000	  35.4368000000	  48.0687000000
O	  39.2906000000	  33.7802000000	  49.1639000000
O	  37.7309000000	  35.0911000000	  48.3019000000
C	  39.5845000000	  33.7930000000	  47.7584000000
C	  38.5250000000	  34.7233000000	  47.1575000000
C	  38.5345000000	  34.8467000000	  49.4189000000
H	  40.6530000000	  34.1164000000	  47.5729000000
H	  39.3993000000	  32.7988000000	  47.3949000000
H	  38.9659000000	  35.6492000000	  46.7510000000
H	  37.8410000000	  34.2720000000	  46.4289000000
H	  38.0212000000	  34.6983000000	  50.3538000000
H	  39.1491000000	  35.6695000000	  49.6147000000
O	  35.2930000000	  33.6083000000	  48.3454000000
O	  35.5089000000	  31.3300000000	  48.3937000000
C	  34.0982000000	  33.0776000000	  48.9512000000
C	  34.4860000000	  31.5585000000	  49.3616000000
C	  36.2147000000	  32.5108000000	  48.3338000000
H	  33.7483000000	  33.7281000000	  49.7501000000
H	  33.4118000000	  32.9735000000	  48.0921000000
H	  34.9511000000	  31.5458000000	  50.3231000000
H	  33.6572000000	  30.8799000000	  49.2398000000
H	  36.7864000000	  32.5092000000	  47.3722000000
H	  36.9130000000	  32.6023000000	  49.0820000000
N	  33.8681000000	  36.9635000000	  45.4755000000
S	  35.1104000000	  36.1202000000	  44.9551000000
O	  35.8716000000	  35.6500000000	  46.0305000000
O	  34.8871000000	  35.2215000000	  43.8613000000
C	  36.2320000000	  37.4432000000	  44.2421000000
F	  37.4774000000	  37.0816000000	  44.1829000000
F	  36.1326000000	  38.4476000000	  45.1424000000
F	  35.8190000000	  37.8164000000	  43.0385000000
S	  33.2280000000	  36.9966000000	  46.9011000000
O	  33.0854000000	  38.4017000000	  47.3784000000
O	  33.6981000000	  35.9363000000	  47.8086000000
C	  31.5600000000	  36.3893000000	  46.5332000000
F	  31.5099000000	  35.1956000000	  46.0284000000
F	  30.7760000000	  36.3827000000	  47.6200000000
F	  30.9715000000	  37.1872000000	  45.7084000000
N	  35.2368000000	  38.0428000000	  50.7246000000
S	  35.0090000000	  36.5489000000	  51.0872000000
O	  33.6976000000	  36.2624000000	  51.5827000000
O	  35.6754000000	  35.5417000000	  50.2793000000
C	  35.9820000000	  36.3972000000	  52.6275000000
F	  35.9489000000	  37.4483000000	  53.3763000000
F	  37.2794000000	  36.1366000000	  52.4291000000
F	  35.5870000000	  35.3553000000	  53.3255000000
S	  35.7444000000	  38.6068000000	  49.3906000000
O	  35.0282000000	  39.7802000000	  49.0194000000
O	  35.9892000000	  37.6090000000	  48.3530000000
C	  37.4674000000	  39.1513000000	  49.9070000000
F	  37.3438000000	  39.9532000000	  50.9466000000
F	  38.2915000000	  38.2166000000	  50.3394000000
F	  38.0891000000	  39.8181000000	  48.9789000000
