39

Li	  54.9003000000	  56.5479000000	   8.4529900000
N	  55.9066000000	  58.1169000000	  12.1190000000
S	  57.0796000000	  59.1444000000	  12.3175000000
O	  58.3389000000	  58.5211000000	  11.9926000000
O	  56.8955000000	  60.4639309013	  11.8007000000
C	  57.1331000000	  59.4702809013	  14.1732000000
F	  57.5396000000	  58.3677000000	  14.7653000000
F	  55.9308000000	  59.7163209013	  14.6910000000
F	  57.8279000000	  60.4899509013	  14.5825000000
S	  54.7340000000	  58.2543000000	  11.0225000000
O	  54.7169000000	  57.2292000000	  10.0486000000
O	  54.5599000000	  59.6366909013	  10.5600000000
C	  53.1671000000	  57.9270000000	  12.0626000000
F	  53.1408000000	  56.7227000000	  12.5895000000
F	  52.9123000000	  58.8063000000	  13.0149000000
F	  52.0780000000	  57.9633000000	  11.2815000000
N	  50.4804000000	  56.0455000000	   7.5552300000
S	  51.7724000000	  55.1689000000	   7.8777700000
O	  52.8788000000	  55.9437000000	   8.3916500000
O	  51.4976000000	  53.8785000000	   8.4630800000
C	  52.2534000000	  54.6607000000	   6.1253100000
F	  53.4194000000	  53.9692000000	   6.1111200000
F	  52.2896000000	  55.6217000000	   5.2810600000
F	  51.3926000000	  53.7834000000	   5.6518300000
S	  50.3314000000	  57.5864000000	   7.6256900000
O	  50.9802000000	  58.3283000000	   6.5615100000
O	  50.3904000000	  58.0439000000	   8.9939700000
C	  48.5815000000	  57.8938000000	   7.3049000000
F	  48.2268000000	  57.3861000000	   6.1545100000
F	  47.8117000000	  57.3138000000	   8.2148300000
F	  48.2148000000	  59.1910000000	   7.2293800000
S	  54.2851000000	  51.5186000000	  16.1774000000
S	  54.7338000000	  49.7354000000	  15.1294000000
S	  56.1875000000	  50.2083000000	  13.6921000000
S	  56.8280000000	  53.3625000000	  10.3375000000
S	  55.6220000000	  54.2391000000	   8.7619100000
S	  56.5112000000	  55.7770000000	   7.5341700000
S	  56.7322000000	  51.2273000000	  10.3394000000
S	  55.3871000000	  50.5399000000	  11.7759000000
