49

Li	  19.1415000000	  18.6610000000	   7.9017200000
O	  17.8346000000	  22.2069000000	   6.9868100000
O	  18.6349000000	  20.4622000000	   7.9679700000
C	  18.3883000000	  22.8195000000	   8.1257200000
C	  18.7392000000	  21.5222000000	   8.9298700000
C	  18.7366000000	  21.1684000000	   6.7525000000
H	  19.3451000000	  23.3298000000	   7.9314900000
H	  17.5526000000	  23.4101000000	   8.5953800000
H	  19.7619000000	  21.5521000000	   9.2757700000
H	  18.0856000000	  21.3118000000	   9.7583900000
H	  18.3606000000	  20.5478000000	   5.9233700000
H	  19.7422000000	  21.4610000000	   6.4846600000
O	  21.3182000000	  19.1963000000	  11.0111000000
O	  19.8848000000	  18.2708000000	   9.4976000000
C	  20.0541000000	  19.0719000000	  11.6413000000
C	  19.2787000000	  18.1105000000	  10.7529000000
C	  21.2814000000	  18.3624000000	   9.9253600000
H	  20.1115000000	  18.6051000000	  12.6524000000
H	  19.6545000000	  20.0368000000	  11.8564000000
H	  19.3817000000	  16.9888000000	  11.0852000000
H	  18.2163000000	  18.4067000000	  10.6620000000
H	  21.9539000000	  18.6889000000	   9.0925100000
H	  21.5801000000	  17.3725000000	  10.2774000000
O	  15.6545000000	  17.1119000000	   9.5667600000
O	  17.2465000000	  17.8157000000	   8.0770900000
C	  15.0534000000	  18.1925000000	   8.8660900000
C	  16.0463000000	  18.5446000000	   7.8540300000
C	  16.7653000000	  16.7071000000	   8.7834700000
H	  14.0999000000	  17.6977000000	   8.3824300000
H	  14.8342000000	  18.9348000000	   9.6082800000
H	  15.6414000000	  18.1953000000	   6.8939800000
H	  16.1701000000	  19.6314000000	   7.7686300000
H	  17.5134000000	  16.2110000000	   9.3563200000
H	  16.4199000000	  15.9515000000	   8.0032800000
N	  21.9659000000	  17.1046000000	   5.7656800000
S	  21.6933000000	  18.6357000000	   5.4688200000
O	  20.8932000000	  19.2957000000	   6.4084200000
O	  22.8819000000	  19.2804000000	   4.9145900000
C	  20.6017000000	  18.6314000000	   3.9717400000
F	  19.4120000000	  18.1730000000	   4.3361000000
F	  21.0780000000	  17.9297000000	   2.9263800000
F	  20.3220000000	  19.8459000000	   3.5379000000
S	  21.1558000000	  16.2168000000	   6.7908400000
O	  19.8932000000	  16.8212000000	   7.2791500000
O	  22.0541000000	  15.7116000000	   7.8084700000
C	  20.5593000000	  14.7871000000	   5.8246200000
F	  21.5049000000	  13.9656000000	   5.4921000000
F	  19.6171000000	  14.0407000000	   6.3200000000
F	  20.1042000000	  15.2370000000	   4.6923000000
