20

Li	  57.9856000000	  31.5434000000	  33.2530000000
O	  57.1335000000	  31.4172000000	  31.7058000000
O	  56.4363000000	  31.8207000000	  29.6611000000
C	  56.4538000000	  30.2002000000	  31.3474000000
C	  56.4324000000	  30.3771000000	  29.8073000000
C	  56.6061000000	  32.4020000000	  30.9350000000
H	  57.0206000000	  29.2476000000	  31.5059000000
H	  55.4278000000	  30.1477000000	  31.6957000000
H	  57.3935000000	  29.9665000000	  29.4621000000
H	  55.6119000000	  29.9011000000	  29.2783000000
H	  55.6518000000	  32.8370000000	  31.3378000000
H	  57.2552000000	  33.2855000000	  30.9685000000
S	  57.7416000000	  33.4945000000	  33.7683000000
S	  56.3917000000	  32.6812000000	  35.1427000000
S	  56.3129000000	  30.5981000000	  34.6730000000
S	  60.0973585005	  28.3263000000	  35.1204000000
S	  60.0763985005	  28.7391000000	  33.0360000000
S	  59.8741085005	  30.8225000000	  32.7795000000
S	  58.0883000000	  27.8278000000	  35.5935000000
S	  57.1034000000	  29.4885000000	  36.3450000000
