34

Li	  24.0288000000	  53.0023000000	  46.6635000000
O	  23.3587000000	  54.6478000000	  46.1226000000
O	  22.1481000000	  55.1200000000	  44.2946000000
C	  22.1357000000	  55.2126000000	  46.5849000000
C	  21.2816000000	  55.5422000000	  45.3431000000
C	  23.4163000000	  55.0087000000	  44.7821000000
H	  21.6623000000	  54.5799000000	  47.3955000000
H	  22.3177000000	  56.1867000000	  47.0205000000
H	  20.3532000000	  54.9911000000	  45.4697000000
H	  21.1526000000	  56.6475000000	  45.3416000000
H	  23.9199000000	  55.9591000000	  44.6457000000
H	  23.9102000000	  54.2633000000	  44.1566000000
O	  22.6736000000	  51.8096000000	  46.2714000000
O	  24.3860000000	  50.5580000000	  46.0695000000
C	  22.5089000000	  50.8819000000	  47.3365000000
C	  23.7869000000	  50.0927000000	  47.2672000000
C	  23.3208000000	  50.9912000000	  45.3931000000
H	  22.2923000000	  51.3967000000	  48.2875000000
H	  21.6463000000	  50.2215000000	  47.1669000000
H	  24.4572000000	  50.3845000000	  48.0726000000
H	  23.4933000000	  49.0042000000	  47.3380000000
H	  22.6633000000	  50.2462000000	  44.9412000000
H	  23.7114000000	  51.5271000000	  44.5359000000
O	  28.1016000000	  52.9356000000	  46.3057000000
O	  25.9781000000	  53.1509000000	  45.8510000000
C	  28.0048000000	  54.2608000000	  45.8720000000
C	  26.5237000000	  54.4781000000	  45.7419000000
C	  27.0464000000	  52.2911000000	  45.5844000000
H	  28.5311000000	  54.8764000000	  46.6044000000
H	  28.5140000000	  54.3978000000	  44.9413000000
H	  26.2103000000	  55.0978000000	  46.5760000000
H	  26.2445000000	  54.9432000000	  44.7967000000
H	  27.1188000000	  52.1065000000	  44.5080000000
H	  26.7890000000	  51.3068000000	  46.0171000000
