42

Li	  30.9904000000	  26.1804000000	  55.2722000000
O	  31.2768000000	  26.1110000000	  53.3731000000
O	  32.5940000000	  25.7833000000	  51.6304000000
C	  30.7417000000	  26.9730000000	  52.3567000000
C	  31.6048000000	  26.6708000000	  51.1125000000
C	  31.9754000000	  25.1819000000	  52.7033000000
H	  29.7421000000	  26.8482000000	  52.1525000000
H	  30.8902000000	  27.9621000000	  52.6875000000
H	  31.0906000000	  26.1083000000	  50.3042000000
H	  32.0544000000	  27.5009000000	  50.6833000000
H	  32.7361000000	  24.7673000000	  53.3214000000
H	  31.3854000000	  24.2852000000	  52.4621000000
O	  28.5583000000	  29.0618000000	  56.1638000000
O	  29.3902000000	  27.1462000000	  55.3387000000
C	  28.2225000000	  28.0916000000	  57.1766000000
C	  28.7500000000	  26.7117000000	  56.6126000000
C	  28.6468000000	  28.2834000000	  55.0161000000
H	  28.3797000000	  28.4005000000	  58.1952000000
H	  27.0691000000	  28.0819000000	  57.2270000000
H	  29.4958000000	  26.3930000000	  57.3255000000
H	  27.8845000000	  26.0255000000	  56.4850000000
H	  27.6228000000	  27.9497000000	  54.6614000000
H	  28.9761000000	  28.8936000000	  54.1412000000
O	  29.5113000000	  21.9107000000	  55.4734000000
O	  30.1323000000	  24.1845000000	  55.1787000000
C	  28.3235000000	  22.6745000000	  55.3505000000
C	  28.9134000000	  23.8882000000	  54.5157000000
C	  30.5180000000	  22.9170000000	  55.6259000000
H	  27.5116000000	  22.0511000000	  54.8301000000
H	  28.0082000000	  22.9669000000	  56.3170000000
H	  29.0982000000	  23.5781000000	  53.5034000000
H	  28.1627000000	  24.7416000000	  54.5233000000
H	  30.8474000000	  23.0347000000	  56.6754000000
H	  31.3829000000	  22.5620000000	  55.0572000000
S	  32.8023000000	  25.6862000000	  56.1802000000
S	  32.4222000000	  27.7174000000	  55.8233000000
S	  33.3962000000	  28.4120000000	  54.1621000000
S	  37.6964000000	  29.0146000000	  55.2620000000
S	  38.6358000000	  30.4388000000	  56.4211000000
S	  37.5951000000	  30.8421000000	  58.2439000000
S	  36.4431000000	  29.8704000000	  53.8854000000
S	  34.4943000000	  30.1049000000	  54.6199000000
