49

Li	   7.2879300000	  26.9169000000	  31.1165000000
O	   6.6251000000	  24.7787000000	  31.2754000000
O	   5.3308000000	  26.4630000000	  30.8137000000
C	   5.6083600000	  24.8557000000	  32.3165000000
C	   4.5976200000	  25.9911000000	  31.9300000000
C	   5.9128500000	  25.3431000000	  30.2640000000
H	   5.1777500000	  23.8530000000	  32.3401000000
H	   5.9504400000	  24.8365000000	  33.3128000000
H	   3.5819900000	  25.5908000000	  31.6505000000
H	   4.4455800000	  26.7057000000	  32.7681000000
H	   6.5142800000	  25.5989000000	  29.4708000000
H	   5.1313900000	  24.6439000000	  29.9112000000
O	  10.9701000000	  24.9093000000	  31.3777000000
O	   9.0115400000	  26.1359000000	  31.4384000000
C	  11.2237000000	  26.2080000000	  31.8845000000
C	   9.9935900000	  27.1190000000	  31.5602000000
C	   9.7012400000	  25.1390000000	  30.7668000000
H	  11.4300000000	  26.1438000000	  32.9222000000
H	  12.0626000000	  26.5282000000	  31.3748000000
H	   9.7448800000	  27.8728000000	  32.3945000000
H	  10.1707000000	  27.7382000000	  30.6747000000
H	   9.9018600000	  25.4270000000	  29.7279000000
H	   9.1843800000	  24.2469000000	  30.7176000000
O	   6.0344100000	  27.1465000000	  34.9333000000
O	   6.8339200000	  27.7420000000	  32.9433000000
C	   5.4647400000	  28.4225000000	  34.7979000000
C	   5.9308600000	  28.7663000000	  33.3834000000
C	   7.2236200000	  27.3231000000	  34.2463000000
H	   4.4541300000	  28.4340000000	  35.0906000000
H	   5.9753500000	  29.1567000000	  35.4462000000
H	   5.0562300000	  28.8731000000	  32.6774000000
H	   6.5961100000	  29.6421000000	  33.3634000000
H	   7.8997200000	  28.0479000000	  34.7397000000
H	   7.7867200000	  26.4269000000	  34.2386000000
N	   7.5858900000	  30.1558000000	  28.4015000000
S	   7.4658600000	  28.5964000000	  28.4909000000
O	   7.7986300000	  28.0041000000	  29.7334000000
O	   6.4088800000	  28.0134000000	  27.6498000000
C	   8.9562300000	  28.1547000000	  27.6856000000
F	   8.9864600000	  28.7161000000	  26.4744000000
F	   9.0345000000	  26.8927000000	  27.3803000000
F	   9.9821000000	  28.5436000000	  28.3589000000
S	   7.3052300000	  31.2516000000	  29.5310000000
O	   6.6741000000	  30.6767000000	  30.6944000000
O	   6.9046200000	  32.5894000000	  29.1131000000
C	   9.0588900000	  31.6272000000	  29.9748000000
F	   9.7355800000	  30.5993000000	  30.4707000000
F	   9.7503300000	  32.0497000000	  28.8731000000
F	   9.2218400000	  32.6169000000	  30.9047000000
