72

Li	  27.2358000000	  32.3674000000	  11.8147000000
O	  27.4726000000	  30.5184000000	  12.3119000000
O	  26.6323000000	  28.7415000000	  13.4567000000
C	  27.2522000000	  29.5301000000	  11.3705000000
C	  27.0066000000	  28.2037000000	  12.1819000000
C	  27.5188000000	  29.8875000000	  13.5643000000
H	  26.3799000000	  29.8195000000	  10.7994000000
H	  28.0876000000	  29.4495000000	  10.7496000000
H	  26.1923000000	  27.6454000000	  11.7207000000
H	  27.8839000000	  27.5956000000	  12.2221000000
H	  28.5770000000	  29.5576000000	  13.6877000000
H	  27.2028000000	  30.5238000000	  14.3486000000
N	  25.8812000000	  34.2274000000	  16.1092000000
S	  27.0437000000	  33.8535000000	  15.1407000000
O	  26.6012000000	  32.9710000000	  14.0816000000
O	  27.9586000000	  34.8914000000	  14.7669000000
C	  28.0497000000	  32.6841000000	  16.2789000000
F	  28.6346000000	  33.3698000000	  17.2769000000
F	  28.9967000000	  32.1081000000	  15.6306000000
F	  27.3546000000	  31.7261000000	  16.9276000000
S	  25.6957000000	  35.5884000000	  16.8253000000
O	  24.5406000000	  36.3755000000	  16.5386000000
O	  26.9346000000	  36.2474000000	  17.1679000000
C	  25.2183000000	  34.8822000000	  18.4198000000
F	  24.0538000000	  34.3399000000	  18.3497000000
F	  26.0883000000	  34.0146000000	  18.8722000000
F	  25.1007000000	  35.8041000000	  19.3061000000
N	  23.4276000000	  31.7005000000	   9.5534900000
S	  22.4004000000	  30.5621000000	   9.0723500000
O	  22.8843000000	  29.9631000000	   7.8514100000
O	  21.9200000000	  29.6759000000	  10.1321000000
C	  20.9465000000	  31.5619000000	   8.6910200000
F	  20.0768000000	  30.9559000000	   7.9874200000
F	  21.3359000000	  32.6364000000	   7.9950300000
F	  20.2341000000	  31.9898000000	   9.7928500000
S	  24.0244000000	  31.8719000000	  10.9791000000
O	  25.4565000000	  32.1585000000	  11.0025000000
O	  23.5087000000	  30.9238000000	  11.9464000000
C	  23.2175000000	  33.4933000000	  11.4657000000
F	  23.4812000000	  33.7796000000	  12.6927000000
F	  23.6953000000	  34.4713000000	  10.6792000000
F	  21.8933000000	  33.5676000000	  11.3518000000
N	  30.4135000000	  33.2529000000	  10.2307000000
S	  30.3905000000	  33.4387000000	  11.8476000000
O	  30.5877000000	  34.8372000000	  12.1652000000
O	  29.3787000000	  32.6846000000	  12.5412000000
C	  31.8293000000	  32.5617000000	  12.3565000000
F	  32.2185000000	  32.9033000000	  13.5558000000
F	  32.9188000000	  32.6864000000	  11.5195000000
F	  31.5549000000	  31.2754000000	  12.4419000000
S	  29.2535000000	  32.7214000000	   9.2045500000
O	  29.1952000000	  33.4303000000	   7.9453100000
O	  28.0030000000	  32.4906000000	   9.9352600000
C	  29.8359000000	  31.1039000000	   8.6285400000
F	  30.2914000000	  30.3290000000	   9.6572700000
F	  28.8869000000	  30.4548000000	   8.0402400000
F	  30.8622000000	  31.1190000000	   7.7959000000
N	  26.1075000000	  36.9949000000	  12.1556000000
S	  25.8056000000	  37.9465000000	  13.3476000000
O	  24.5454000000	  37.5836000000	  14.0166000000
O	  26.9508000000	  38.2762000000	  14.1896000000
C	  25.4613000000	  39.4428000000	  12.3613000000
F	  26.5524000000	  39.8625000000	  11.7900000000
F	  24.9947000000	  40.4843000000	  13.1249000000
F	  24.5338000000	  39.1772000000	  11.4247000000
S	  27.4241000000	  36.2127000000	  11.7150000000
O	  27.3394000000	  34.7542000000	  11.6067000000
O	  28.6827000000	  36.7307000000	  12.1366000000
C	  27.4303000000	  36.6877000000	  10.0149000000
F	  27.4756000000	  38.0492000000	   9.8210000000
F	  28.4375000000	  36.1322000000	   9.3548200000
F	  26.3049000000	  36.3211000000	   9.4449000000
