54

Li	  43.9563000000	   4.2951200000	  17.6643000000
N	  45.0772000000	   8.5460700000	  16.9077000000
S	  45.1727000000	   7.4598000000	  18.0163000000
O	  44.7332000000	   7.9399800000	  19.2915000000
O	  44.7667000000	   6.1518900000	  17.4954000000
C	  47.0418000000	   7.3565200000	  18.2191000000
F	  47.3914000000	   6.5918700000	  19.2384000000
F	  47.5435000000	   8.5360200000	  18.4762000000
F	  47.7284000000	   6.9137800000	  17.1833000000
S	  44.3890000000	   9.9457900000	  16.8846000000
O	  44.0727000000	  10.4694000000	  18.1955000000
O	  43.4859000000	  10.1110000000	  15.7480000000
C	  45.8294000000	  11.1472000000	  16.4112000000
F	  45.4980000000	  12.4389000000	  16.4677000000
F	  46.8223000000	  11.0375000000	  17.2824000000
F	  46.3918000000	  10.8967000000	  15.2394000000
N	  42.4459000000	   3.5234700000	  13.8813000000
S	  41.9419000000	   3.0532400000	  15.3622000000
O	  42.6207000000	   3.6047000000	  16.4594000000
O	  40.5291000000	   2.7972900000	  15.5520000000
C	  42.6225000000	   1.3495200000	  15.3508000000
F	  43.9123000000	   1.2567000000	  15.4816000000
F	  42.2322000000	   0.7838390987	  14.2019000000
F	  42.1936000000	   0.5234390987	  16.3085000000
S	  41.8449000000	   4.7065900000	  13.0859000000
O	  42.8094000000	   5.7218700000	  12.7868000000
O	  40.5113000000	   5.0233200000	  13.4748000000
C	  41.4931000000	   3.7166600000	  11.5718000000
F	  40.7882000000	   4.2899800000	  10.6308000000
F	  42.5739000000	   3.3907200000	  10.8711000000
F	  40.8120000000	   2.6205700000	  11.8324000000
N	  48.3307000000	   3.7740000000	  18.4055000000
S	  46.9815000000	   2.9748800000	  17.9835000000
O	  46.9366000000	   1.5935200000	  18.3576000000
O	  45.7053000000	   3.7122600000	  18.1236000000
C	  47.0747000000	   2.9428400000	  16.1535000000
F	  47.4858000000	   4.2282400000	  15.8205000000
F	  45.8924000000	   2.7376900000	  15.5401000000
F	  47.9787000000	   2.0035100000	  15.7646000000
S	  49.6473000000	   3.2438000000	  19.0341000000
O	  49.6376000000	   1.8180500000	  19.3100000000
O	  50.3357000000	   4.0431200000	  19.9372000000
C	  50.7597000000	   3.3066200000	  17.6044000000
F	  50.5409000000	   2.2516200000	  16.8628000000
F	  50.6107000000	   4.3116000000	  16.7525000000
F	  52.0818000000	   3.2806800000	  17.9456000000
S	  42.7982000000	   4.8072900000	  19.3650000000
S	  43.5136000000	   3.0626700000	  20.3275000000
S	  43.7540000000	   1.4386700000	  19.0479000000
S	  42.5799000000	  -3.7169609013	  19.3479000000
S	  42.5666000000	  -5.2176609013	  20.7905000000
S	  41.0996000000	  -6.6797609013	  20.5562000000
S	  43.3719000000	  -1.8512609013	  20.1776000000
S	  42.4708000000	  -0.0654609013	  19.6460000000
