57

Li	  21.2533000000	  35.8937000000	   6.0644000000
O	  22.8040000000	  34.5561000000	   5.0960700000
O	  24.1258000000	  32.9103000000	   5.4778400000
C	  22.5628000000	  33.6753000000	   3.9603500000
C	  23.6893000000	  32.6347000000	   4.1347600000
C	  23.9430000000	  34.2134000000	   5.6383500000
H	  21.5611000000	  33.2138000000	   3.9359100000
H	  22.6414000000	  34.1729000000	   3.0439400000
H	  23.2945000000	  31.5733000000	   4.1413900000
H	  24.4810000000	  32.6143000000	   3.4538100000
H	  24.6479000000	  34.8100000000	   5.0158100000
H	  24.1105000000	  34.6551000000	   6.6133300000
O	  21.0264000000	  34.2420000000	   7.3322700000
O	  20.1582000000	  32.3219000000	   8.0198300000
C	  21.4457000000	  33.9480000000	   8.6925500000
C	  21.3305000000	  32.4505000000	   8.7527800000
C	  20.2196000000	  33.1550000000	   6.9775300000
H	  22.3510000000	  34.4648000000	   8.9683800000
H	  20.7866000000	  34.4581000000	   9.3838300000
H	  22.0239000000	  31.9115000000	   8.1121400000
H	  21.3119000000	  32.0827000000	   9.7724800000
H	  19.2919000000	  33.5688000000	   6.6134400000
H	  20.7458000000	  32.7182000000	   6.1534400000
O	  21.5576000000	  38.9017000000	   9.2554700000
O	  21.8983000000	  36.9842000000	   8.0499700000
C	  22.9690000000	  38.7220000000	   9.0913400000
C	  23.2138000000	  37.3385000000	   8.5224900000
C	  21.0236000000	  37.6620000000	   8.9374900000
H	  23.2050000000	  39.5095000000	   8.4039300000
H	  23.5471000000	  39.0343000000	   9.9549800000
H	  23.9446000000	  37.5184000000	   7.6810200000
H	  23.6139000000	  36.7705000000	   9.3036100000
H	  20.9030000000	  37.1887000000	   9.9492300000
H	  20.0002000000	  37.8174000000	   8.4963100000
N	  22.5494000000	  39.0954000000	   3.1440000000
S	  21.3505000000	  40.0394000000	   3.6137600000
O	  20.1373000000	  39.3341000000	   3.7170500000
O	  21.6594000000	  41.0400000000	   4.6230700000
C	  20.9041000000	  40.9929000000	   2.0499500000
F	  19.9196000000	  41.8364000000	   2.3256500000
F	  20.5902000000	  40.2307000000	   1.0514900000
F	  21.9879000000	  41.6362000000	   1.5230800000
S	  23.1464000000	  37.9367000000	   3.9873000000
O	  23.9262000000	  37.0369000000	   3.2070600000
O	  22.2194000000	  37.3402000000	   4.9306300000
C	  24.4290000000	  38.8210000000	   4.9394700000
F	  25.1912000000	  39.6654000000	   4.2324200000
F	  23.8629000000	  39.5327000000	   5.8857000000
F	  25.2701000000	  37.9553000000	   5.5269800000
S	  19.3399000000	  36.3019000000	   5.2976100000
S	  19.3911000000	  35.1608000000	   3.4742300000
S	  20.6408000000	  36.0886000000	   1.8780500000
S	  21.6580000000	  36.3889000000	  -2.5957167399
S	  21.1406000000	  37.2954000000	  -4.3555167399
S	  21.4866000000	  36.1633000000	  -6.0909167399
S	  19.9830000000	  35.6232000000	  -1.5081167399
S	  19.5554000000	  36.6392000000	   0.2526832601
