39

Li	  55.6559000000	  57.5428000000	   8.9801900000
N	  55.1439000000	  56.2157000000	  13.1546000000
S	  56.0291000000	  57.0325000000	  12.2033000000
O	  57.3649000000	  56.6286000000	  12.2611000000
O	  55.5203000000	  57.1963000000	  10.8444000000
C	  56.0423000000	  58.6660000000	  13.1375000000
F	  54.8159000000	  59.0203000000	  13.5914000000
F	  56.4373000000	  59.5893309013	  12.2949000000
F	  56.7963000000	  58.7649000000	  14.1961000000
S	  53.7005000000	  55.5874000000	  12.9508000000
O	  53.5937000000	  54.4547000000	  13.7921000000
O	  53.1800000000	  55.3758000000	  11.6230000000
C	  52.4684000000	  56.7872000000	  13.6637000000
F	  51.2585000000	  56.3092000000	  13.6398000000
F	  52.7624000000	  57.0010000000	  14.9561000000
F	  52.5461000000	  57.8925000000	  13.0112000000
N	  52.0048000000	  57.8835000000	   7.3899700000
S	  53.0061000000	  56.7629000000	   7.0253700000
O	  54.2994000000	  56.7878000000	   7.6953900000
O	  52.3367000000	  55.5182000000	   6.8637600000
C	  53.5303000000	  57.1987000000	   5.3290200000
F	  54.5988000000	  56.4995000000	   4.9103800000
F	  53.8747000000	  58.4703000000	   5.2814000000
F	  52.4861000000	  56.9917000000	   4.5559200000
S	  52.0802000000	  58.9335000000	   8.5503000000
O	  51.5518000000	  60.2556909013	   8.2116400000
O	  53.2609000000	  58.9412000000	   9.3623800000
C	  50.9097000000	  58.1495000000	   9.6342500000
F	  50.3281000000	  59.0610000000	  10.4534000000
F	  49.8674000000	  57.5536000000	   8.9491300000
F	  51.3424000000	  57.1645000000	  10.4276000000
S	  62.6325885005	  64.6414309013	   5.3990600000
S	  64.0315585005	  63.1034109013	   5.7279200000
S	  63.5265985005	  61.6095109013	   7.0480300000
S	  59.8051385005	  58.8482000000	   7.3863500000
S	  57.7238000000	  58.8397000000	   6.9960900000
S	  56.5210000000	  59.5399009013	   8.6076700000
S	  60.9372185005	  59.5070509013	   5.7503800000
S	  63.0152685005	  59.7262309013	   6.1210900000
