46

Li	  38.3754000000	  14.5917000000	  53.3364000000
O	  40.6540000000	  15.0253000000	  52.7388000000
O	  42.7404000000	  14.9068000000	  53.5633000000
C	  41.4483000000	  15.1306000000	  51.6193000000
C	  42.8294000000	  14.7252000000	  52.1283000000
C	  41.4765000000	  15.4013000000	  53.7529000000
H	  41.1073000000	  14.4817000000	  50.7936000000
H	  41.5233000000	  16.1735000000	  51.2430000000
H	  42.9111000000	  13.6391000000	  51.9703000000
H	  43.7110000000	  15.2021000000	  51.6456000000
H	  41.6336000000	  16.4428000000	  53.8411000000
H	  41.0697000000	  14.9022000000	  54.6738000000
O	  38.8402000000	  10.6834000000	  54.7954000000
O	  39.2146000000	  12.7959000000	  54.0316000000
C	  39.3757000000	  10.6522000000	  53.4250000000
C	  40.0254000000	  12.0642000000	  53.1611000000
C	  38.9729000000	  12.0439000000	  55.1537000000
H	  40.0826000000	   9.9547800000	  53.3233000000
H	  38.6313000000	  10.5178000000	  52.6885000000
H	  41.0925000000	  12.2884000000	  53.4372000000
H	  39.9517000000	  12.3259000000	  52.1047000000
H	  38.0454000000	  12.3572000000	  55.6386000000
H	  39.7947000000	  12.2076000000	  55.8446000000
N	  36.0559000000	  12.2035000000	  51.7845000000
S	  35.8999000000	  12.5860000000	  53.2920000000
O	  35.8378000000	  11.4391000000	  54.1681000000
O	  36.5838000000	  13.7536000000	  53.7667000000
C	  34.1255000000	  13.1541000000	  53.1938000000
F	  33.7478000000	  13.4422000000	  54.4184000000
F	  33.3264000000	  12.1385000000	  52.7312000000
F	  33.8476000000	  14.1627000000	  52.5045000000
S	  37.1335000000	  12.7244000000	  50.7611000000
O	  37.7868000000	  11.5912000000	  50.1536000000
O	  37.9451000000	  13.7721000000	  51.2896000000
C	  36.0372000000	  13.5309000000	  49.5761000000
F	  36.7417000000	  14.0355000000	  48.5569000000
F	  35.1372000000	  12.7777000000	  48.9780000000
F	  35.3467000000	  14.5158000000	  50.1151000000
S	  37.6378000000	  16.6802000000	  53.6102000000
S	  38.2339000000	  15.8838000000	  55.5103000000
S	  37.0767000000	  16.5487000000	  57.1301000000
S	  34.5817000000	  13.9439000000	  60.3598667399
S	  35.6683000000	  14.3461000000	  62.1903667399
S	  34.3761000000	  15.3432000000	  63.6871067399
S	  35.5578000000	  13.7571000000	  58.4629000000
S	  35.2839000000	  15.4284000000	  57.2295000000
