53

Li	  24.4239000000	  47.7923000000	  58.9910000000
O	  24.2289000000	  49.4428000000	  59.7836367399
O	  24.0271000000	  51.2373000000	  61.2047167399
C	  22.9297000000	  49.9325000000	  59.5786767399
C	  22.8326000000	  51.2088000000	  60.4562167399
C	  24.6023000000	  49.9698000000	  60.9978967399
H	  22.8271000000	  50.1576000000	  58.5317000000
H	  22.2376000000	  49.0765000000	  59.7823667399
H	  22.7034000000	  52.0734000000	  59.7804667399
H	  21.9396000000	  51.1228000000	  61.1547467399
H	  24.3270000000	  49.2493000000	  61.7904367399
H	  25.7316000000	  50.0080000000	  60.9666967399
O	  24.7634000000	  43.9757000000	  59.4927767399
O	  24.1643000000	  46.1824000000	  59.7763467399
C	  23.6118000000	  44.0059000000	  60.3332667399
C	  23.5782000000	  45.4722000000	  60.8238567399
C	  24.6278000000	  45.1962000000	  58.8876000000
H	  22.6979000000	  43.5614000000	  59.9162567399
H	  23.8599000000	  43.4001000000	  61.2440867399
H	  22.5847000000	  45.8559000000	  61.1240467399
H	  24.3349000000	  45.7118000000	  61.5662467399
H	  25.5912000000	  45.5028000000	  58.4864000000
H	  23.8960000000	  45.1356000000	  58.0653000000
N	  27.2959000000	  48.5257000000	  57.0278000000
S	  27.5516000000	  48.3119000000	  58.5657000000
O	  28.3674000000	  49.4199000000	  59.0621000000
O	  26.4161000000	  47.9804000000	  59.3929867399
C	  28.6121000000	  46.8263000000	  58.6816000000
F	  28.0284000000	  45.6440000000	  58.2824000000
F	  29.0196000000	  46.7134000000	  59.9091867399
F	  29.7112000000	  46.9025000000	  57.9262000000
S	  25.9073000000	  48.8502000000	  56.3036000000
O	  24.8152000000	  48.3112000000	  57.0351000000
O	  25.9286000000	  48.7335000000	  54.8414000000
C	  25.8104000000	  50.6918000000	  56.6103000000
F	  26.8423000000	  51.3574000000	  56.2132000000
F	  24.7512000000	  51.3022000000	  56.0873000000
F	  25.5594000000	  50.8635000000	  57.9255000000
N	  20.5372000000	  48.8998000000	  57.4795000000
S	  21.3337000000	  47.6338000000	  57.1280000000
O	  22.4448000000	  47.3094000000	  57.9760000000
O	  20.6062000000	  46.4746000000	  56.6692000000
C	  22.0181000000	  48.1641000000	  55.5128000000
F	  22.4792000000	  49.3941000000	  55.4885000000
F	  21.0764000000	  48.0867000000	  54.6270000000
F	  22.9976000000	  47.3041000000	  55.1779000000
S	  18.9950000000	  49.2388000000	  57.1354000000
O	  18.1082000000	  49.2280000000	  58.2513000000
O	  18.5572000000	  48.8074000000	  55.8002000000
C	  19.1535000000	  51.0166000000	  56.8681000000
F	  17.9924000000	  51.5511000000	  56.5705000000
F	  19.6812000000	  51.6808000000	  57.8595000000
F	  19.9308000000	  51.2617000000	  55.8253000000
