38

Li	  27.6619000000	  32.8305000000	  54.4784000000
O	  29.0764000000	  32.9440000000	  53.3107000000
O	  30.2525000000	  32.0129000000	  51.6068000000
C	  29.3808000000	  34.0129000000	  52.4664000000
C	  30.0835000000	  33.3781000000	  51.2359000000
C	  30.0601000000	  31.9795000000	  53.0066000000
H	  28.4119000000	  34.4399000000	  52.1840000000
H	  30.0177000000	  34.8129000000	  52.9395000000
H	  29.3823000000	  33.4632000000	  50.4023000000
H	  31.0930000000	  33.7714000000	  51.1199000000
H	  31.0042000000	  32.1118000000	  53.5539000000
H	  29.8829000000	  31.0045000000	  53.2833000000
O	  25.9729000000	  33.0059000000	  54.0418000000
O	  24.0944000000	  34.2178000000	  53.4580000000
C	  25.8026000000	  32.9015000000	  52.6199000000
C	  25.0232000000	  34.1648000000	  52.4260000000
C	  24.7837000000	  33.5896000000	  54.4617000000
H	  26.7520000000	  32.7528000000	  52.0930000000
H	  25.1385000000	  32.0212000000	  52.3561000000
H	  25.6199000000	  35.0821000000	  52.4424000000
H	  24.5179000000	  34.2081000000	  51.4659000000
H	  24.1805000000	  32.8618000000	  55.0406000000
H	  25.1174000000	  34.4162000000	  55.0791000000
N	  29.0634000000	  33.0713000000	  57.8924000000
S	  28.6511000000	  34.3713000000	  57.1533000000
O	  28.0931000000	  34.1210000000	  55.8598000000
O	  28.1584000000	  35.3605000000	  58.0558000000
C	  30.2926000000	  35.0039000000	  56.6726000000
F	  30.2767000000	  36.3062000000	  56.2467000000
F	  30.7995000000	  34.1688000000	  55.8194000000
F	  31.1058000000	  35.1421000000	  57.7499000000
S	  28.8697000000	  31.6235000000	  57.4029000000
O	  28.3044000000	  31.4521000000	  56.1044000000
O	  28.2201000000	  30.9125000000	  58.4665000000
C	  30.6083000000	  30.9752000000	  57.3398000000
F	  31.3343000000	  31.2706000000	  58.4790000000
F	  30.6542000000	  29.6810000000	  57.2050000000
F	  31.2691000000	  31.4137000000	  56.2749000000
