68

Li	  19.0619000000	  46.1961000000	  39.0474000000
O	  20.5717000000	  47.7739000000	  38.3613000000
O	  22.4988000000	  48.3274000000	  37.4766000000
C	  20.3622000000	  49.0734000000	  37.9065000000
C	  21.6973000000	  49.4788000000	  37.3383000000
C	  21.9568000000	  47.6569000000	  38.5444000000
H	  19.6485000000	  49.0343000000	  37.0914000000
H	  20.0050000000	  49.7470000000	  38.6185000000
H	  21.6655000000	  49.7775000000	  36.2841000000
H	  22.1326000000	  50.3825000000	  37.8405000000
H	  22.3127000000	  48.2184000000	  39.4354000000
H	  22.2805000000	  46.6346000000	  38.6550000000
O	  16.2796000000	  44.1927000000	  41.3019000000
O	  17.3897000000	  44.9367000000	  39.5386000000
C	  15.3576000000	  45.0986000000	  40.6031000000
C	  16.0333000000	  45.2369000000	  39.2290000000
C	  17.2447000000	  43.8395000000	  40.4361000000
H	  14.4758000000	  44.4918000000	  40.5085000000
H	  15.1757000000	  45.9938000000	  41.2117000000
H	  15.5711000000	  44.5272000000	  38.5718000000
H	  15.8624000000	  46.1728000000	  38.6971000000
H	  18.2307000000	  43.6178000000	  40.9774000000
H	  17.1491000000	  42.8866000000	  39.9144000000
N	  22.7304000000	  43.8692000000	  38.3223000000
S	  24.0047000000	  44.2230000000	  37.5252000000
O	  24.3378000000	  43.3642000000	  36.4175000000
O	  24.1406000000	  45.6309000000	  37.2529000000
C	  25.3099000000	  43.8941000000	  38.7355000000
F	  25.1364000000	  42.7212000000	  39.2908000000
F	  25.4031000000	  44.8624000000	  39.6367000000
F	  26.4726000000	  43.8481000000	  38.1847000000
S	  21.2786000000	  43.7251000000	  37.7499000000
O	  21.2813000000	  43.4447000000	  36.3407000000
O	  20.4320000000	  44.8085000000	  38.1561000000
C	  20.5876000000	  42.3944000000	  38.6533000000
F	  19.3441000000	  42.0169000000	  38.2974000000
F	  21.2274000000	  41.2611000000	  38.5798000000
F	  20.6639000000	  42.6643000000	  39.9699000000
N	  20.2007000000	  47.1326000000	  35.4579000000
S	  18.9800000000	  46.2614000000	  35.8216000000
O	  19.0061000000	  44.8858000000	  35.4206000000
O	  18.5821000000	  46.4761000000	  37.2191000000
C	  17.6148000000	  46.9283000000	  34.8470000000
F	  16.4271000000	  46.4110000000	  35.1261000000
F	  17.7938000000	  46.8166000000	  33.5234000000
F	  17.4652000000	  48.2042000000	  35.0086000000
S	  21.4301000000	  46.6709000000	  34.6072000000
O	  21.3448000000	  45.3732000000	  33.9886000000
O	  22.6378000000	  47.0096000000	  35.3022000000
C	  21.3508000000	  47.7984000000	  33.1817000000
F	  20.2117000000	  47.6308000000	  32.5236000000
F	  21.3327000000	  49.0487000000	  33.6859000000
F	  22.3097000000	  47.6387000000	  32.2805000000
N	  18.7697000000	  47.2144000000	  42.5309000000
S	  19.6147000000	  45.9518000000	  42.2382000000
O	  19.0376000000	  44.8336000000	  42.9391000000
O	  19.9297000000	  45.7697000000	  40.8784000000
C	  21.2194000000	  46.2194000000	  43.1454000000
F	  22.0464000000	  45.1800000000	  43.0930000000
F	  21.0044000000	  46.4315000000	  44.4411000000
F	  21.8590000000	  47.3263000000	  42.6633000000
S	  18.2095000000	  48.2082000000	  41.4976000000
O	  16.8691000000	  48.6089000000	  41.8436000000
O	  18.3940000000	  47.8532000000	  40.1491000000
C	  19.3399000000	  49.5884000000	  41.7050000000
F	  18.8524000000	  50.6577000000	  41.0323000000
F	  19.5386000000	  49.9014000000	  43.0190000000
F	  20.5813000000	  49.4152000000	  41.1700000000
