68

Li	  46.8995000000	  36.3857000000	  24.3413000000
O	  45.2137000000	  35.3642000000	  24.6578000000
O	  43.1208000000	  35.5861000000	  25.5865000000
C	  44.9274000000	  34.2081000000	  25.2585000000
C	  43.6331000000	  34.3975000000	  26.0762000000
C	  43.9645000000	  35.9086000000	  24.4755000000
H	  44.7737000000	  33.3893000000	  24.5609000000
H	  45.8121000000	  34.0224000000	  25.9391000000
H	  42.9314000000	  33.5863000000	  25.7695000000
H	  43.8125000000	  34.5029000000	  27.1386000000
H	  44.0462000000	  36.9436000000	  24.3859000000
H	  43.4935000000	  35.4791000000	  23.5740000000
O	  48.5610000000	  35.2945000000	  23.7801000000
O	  50.6848000000	  35.2507000000	  23.0400000000
C	  48.7782000000	  33.9819000000	  23.2306000000
C	  50.3332000000	  33.9127000000	  23.3076000000
C	  49.6981000000	  36.0709000000	  23.5589000000
H	  48.1609000000	  33.1640000000	  23.6786000000
H	  48.4021000000	  33.9990000000	  22.2186000000
H	  50.6428000000	  33.6202000000	  24.3601000000
H	  50.8656000000	  33.3330000000	  22.5567000000
H	  49.4579000000	  36.9349000000	  22.9372000000
H	  50.0153000000	  36.5260000000	  24.5165000000
N	  45.1731000000	  35.9307000000	  20.1400000000
S	  44.7994000000	  34.4540000000	  20.5373000000
O	  45.1947000000	  33.5388000000	  19.5167000000
O	  44.9360000000	  34.0200000000	  21.9038000000
C	  42.9871000000	  34.5140000000	  20.3829000000
F	  42.4729000000	  35.3852000000	  21.2116000000
F	  42.4432000000	  33.3115000000	  20.3932000000
F	  42.6831000000	  34.8988000000	  19.1751000000
S	  46.0083000000	  37.0067000000	  20.9107000000
O	  46.3490000000	  36.7004000000	  22.3068000000
O	  45.5458000000	  38.3328000000	  20.5383000000
C	  47.6256000000	  36.8297000000	  19.9879000000
F	  48.0478000000	  35.5625000000	  20.1376000000
F	  47.5517000000	  37.0562000000	  18.6520000000
F	  48.5066000000	  37.7040000000	  20.3982000000
N	  48.4846000000	  40.7058000000	  24.5323000000
S	  49.9494000000	  40.9189000000	  24.1063000000
O	  50.7872000000	  41.0283000000	  25.2893000000
O	  50.4781000000	  40.2366000000	  22.9223000000
C	  49.8537000000	  42.6523000000	  23.4301000000
F	  50.9894000000	  43.0688000000	  22.9436000000
F	  49.6158000000	  43.5890000000	  24.3823000000
F	  49.0080000000	  42.7985000000	  22.4891000000
S	  47.4844000000	  39.7514000000	  23.7976000000
O	  47.4009000000	  38.3958000000	  24.2446000000
O	  47.4538000000	  39.8717000000	  22.3656000000
C	  45.8442000000	  40.4811000000	  24.3640000000
F	  45.7548000000	  40.5394000000	  25.6918000000
F	  45.5778000000	  41.6540000000	  23.8230000000
F	  44.8510000000	  39.6501000000	  24.0044000000
N	  48.6548000000	  37.6820000000	  28.1500000000
S	  47.6549000000	  36.5384000000	  27.7126000000
O	  47.4515000000	  36.4468000000	  26.3203000000
O	  47.6673000000	  35.3347000000	  28.5164000000
C	  46.0235000000	  37.2443000000	  28.2314000000
F	  46.0166000000	  37.6023000000	  29.4502000000
F	  45.0828000000	  36.3776000000	  28.1403000000
F	  45.7768000000	  38.3195000000	  27.4838000000
S	  50.1185000000	  37.6890000000	  27.6933000000
O	  50.4289000000	  38.9894000000	  27.1060000000
O	  50.5657000000	  36.5229000000	  26.9981000000
C	  50.9999000000	  37.7134000000	  29.1924000000
F	  50.8108000000	  36.6534000000	  29.9593000000
F	  52.3133000000	  37.9062000000	  28.9761000000
F	  50.5792000000	  38.6486000000	  30.0215000000
