20

Li	  58.0859000000	  30.9576000000	  33.2607000000
O	  58.6392000000	  29.6680000000	  32.0079000000
O	  58.7957000000	  27.4702000000	  31.3962000000
C	  57.8727000000	  29.4916000000	  30.8875000000
C	  57.6161000000	  27.9882000000	  30.7493000000
C	  59.0633000000	  28.3859000000	  32.3782000000
H	  57.0131000000	  30.1019000000	  30.9814000000
H	  58.5359000000	  29.8092000000	  30.0323000000
H	  56.7817000000	  27.6483000000	  31.3141000000
H	  57.5089000000	  27.6905000000	  29.6932000000
H	  60.1365385005	  28.3442000000	  32.6079000000
H	  58.5897000000	  28.0322000000	  33.2466000000
S	  56.7539000000	  32.5951000000	  32.6893000000
S	  55.5386000000	  31.4134000000	  34.0084000000
S	  56.2404000000	  29.4136000000	  34.0100000000
S	  59.7944585005	  29.1124000000	  36.5393000000
S	  60.8565885005	  29.7811000000	  34.8226000000
S	  60.0101085005	  31.6062000000	  33.9680000000
S	  58.3579000000	  27.6080000000	  36.1151000000
S	  56.4176000000	  28.4870000000	  35.8982000000
