28

Li	  24.4769000000	  48.6185000000	  27.3450000000
O	  26.5185000000	  48.2432000000	  30.7956000000
O	  25.7254000000	  48.6056000000	  28.6890000000
C	  26.6291000000	  49.6387000000	  30.4981000000
C	  26.4615000000	  49.7680000000	  29.0357000000
C	  25.8976000000	  47.6878000000	  29.7038000000
H	  25.7879000000	  50.1584000000	  31.0695000000
H	  27.5505000000	  50.1618000000	  30.7321000000
H	  25.9584000000	  50.6453000000	  28.7515000000
H	  27.3951000000	  49.6417000000	  28.4881000000
H	  26.5893000000	  46.9919000000	  29.2826000000
H	  24.9361000000	  47.2277000000	  29.9760000000
S	  22.0707000000	  54.4528000000	  35.4363000000
S	  23.8183000000	  53.9714000000	  34.2702000000
S	  23.8528000000	  51.9737000000	  33.3305000000
S	  22.5125000000	  49.0781000000	  29.4879000000
S	  22.1711000000	  49.3091000000	  27.4639000000
S	  23.7455000000	  50.3629000000	  26.5882000000
S	  21.7928000000	  50.6949000000	  30.7438000000
S	  23.2516000000	  52.1440000000	  31.3387000000
S	  23.9606000000	  46.7860000000	  26.2307000000
S	  24.7011000000	  45.1890000000	  27.2899000000
S	  26.8426000000	  44.9114000000	  26.9559000000
S	  27.8211000000	  44.3871000000	  22.3928000000
S	  29.0429000000	  45.7474000000	  21.3706000000
S	  29.9336000000	  45.0702000000	  19.5662000000
S	  28.6844000000	  43.5823000000	  24.1446000000
S	  27.1018000000	  43.3316000000	  25.5757000000
