31

Li	  54.7607000000	  29.5313000000	  44.3621000000
O	  54.3518000000	  31.7279000000	  47.9479000000
O	  55.1244000000	  30.6422000000	  46.0679000000
C	  55.7455000000	  31.4294000000	  48.1863000000
C	  56.0233000000	  30.4003000000	  47.1203000000
C	  54.2051000000	  31.6058000000	  46.4931000000
H	  56.4011000000	  32.2421000000	  48.0361000000
H	  55.9113000000	  30.9489000000	  49.1737000000
H	  57.0409000000	  30.5553000000	  46.8878000000
H	  55.9294000000	  29.4363000000	  47.6020000000
H	  53.1758000000	  31.4428000000	  46.1909000000
H	  54.6117000000	  32.5526000000	  46.1425000000
O	  56.3107000000	  30.1812000000	  43.3001000000
O	  57.0304000000	  31.9948000000	  42.1753000000
C	  56.6403000000	  29.6756000000	  42.0117000000
C	  56.6984000000	  31.0592000000	  41.2155000000
C	  56.9978000000	  31.3756000000	  43.4161000000
H	  57.6151000000	  29.1270000000	  41.9970000000
H	  55.8472000000	  29.0625000000	  41.6133000000
H	  57.4299000000	  30.9751000000	  40.4431000000
H	  55.7584000000	  31.4142000000	  40.8096000000
H	  56.5931000000	  31.9664000000	  44.2779000000
H	  58.0681000000	  31.0409000000	  43.5858000000
S	  53.0326000000	  29.8786000000	  43.1975000000
S	  52.4800000000	  27.8696000000	  42.8033000000
S	  52.9845000000	  27.2510000000	  40.8902000000
S	  57.1081000000	  25.2329000000	  42.7855000000
S	  57.4325000000	  26.9453000000	  44.0644000000
S	  55.6322000000	  27.4682000000	  45.0509000000
S	  56.2729000000	  25.7713000000	  40.9153000000
S	  54.1710000000	  25.4892000000	  40.7670000000
