47

Li	  57.2816000000	  57.9186000000	  10.9490000000
N	  54.5569000000	  57.1248000000	  13.5478000000
S	  55.6962000000	  58.2076000000	  13.7750000000
O	  56.3250000000	  58.2020000000	  15.0526000000
O	  56.5521000000	  58.4418000000	  12.6142000000
C	  54.8105000000	  59.7500409013	  13.8676000000
F	  54.0561000000	  60.0075409013	  12.7635000000
F	  55.6687000000	  60.7805709013	  13.9820000000
F	  54.0867000000	  59.7270609013	  14.9787000000
S	  53.9842000000	  56.0503000000	  14.4875000000
O	  54.3953000000	  56.1292000000	  15.8558000000
O	  54.0325000000	  54.7549000000	  13.8688000000
C	  52.2462000000	  56.5066000000	  14.3458000000
F	  51.4985000000	  55.5208000000	  14.7917000000
F	  51.8078000000	  57.5877000000	  14.9992000000
F	  51.9688000000	  56.6714000000	  13.0354000000
N	  52.8612000000	  58.2727000000	   9.3391300000
S	  54.0593000000	  57.3082000000	   9.2516700000
O	  55.1666000000	  57.6252000000	  10.0987000000
O	  53.7138000000	  55.9098000000	   9.1731900000
C	  54.6479000000	  57.7658000000	   7.6297300000
F	  55.2001000000	  58.9589000000	   7.6620200000
F	  53.6588000000	  57.8608000000	   6.6859200000
F	  55.5245000000	  56.8705000000	   7.2231700000
S	  51.3927000000	  57.8284000000	   9.6577800000
O	  50.7252000000	  58.5307000000	  10.7172000000
O	  51.0273000000	  56.4671000000	   9.4024400000
C	  50.6782000000	  58.5965000000	   8.1861400000
F	  50.8613000000	  58.0664000000	   7.0411300000
F	  49.3937000000	  58.7098000000	   8.3703200000
F	  51.0048000000	  59.8649409013	   8.0154400000
S	  62.2719985005	  67.3003509013	   4.4202100000
S	  62.9949785005	  65.3982809013	   4.8679300000
S	  62.0711285005	  64.3859709013	   6.5579100000
S	  60.9880885005	  60.0476109013	   8.5652200000
S	  59.2855535005	  58.8001000000	   8.4632100000
S	  57.5708000000	  59.5306809013	   9.5230200000
S	  61.7144685005	  60.8628009013	   6.7787200000
S	  60.8238485005	  62.6736909013	   6.1410800000
S	  51.0796000000	  49.0708000000	  11.6796000000
S	  52.8209000000	  49.3387000000	  10.4965000000
S	  54.4097000000	  50.0604000000	  11.7209000000
S	  56.4930000000	  54.6616000000	  11.0185000000
S	  58.1854000000	  55.5152000000	  10.0505000000
S	  59.2666145005	  56.8024000000	  11.3688000000
S	  57.0393000000	  52.6815000000	  11.7171000000
S	  55.9227000000	  51.0809000000	  10.6600000000
