64

Li	   4.7911600000	  34.7977000000	  48.7721000000
O	   1.9444100000	  35.9268000000	  51.5707000000
O	   3.9888300000	  35.3416000000	  50.9299000000
C	   2.5368900000	  37.1495000000	  51.6101000000
C	   3.9598900000	  36.7645000000	  51.1292000000
C	   2.8853200000	  34.9231000000	  51.6606000000
H	   1.9498900000	  37.7034000000	  50.8672000000
H	   2.4182000000	  37.4243000000	  52.6326000000
H	   4.3025600000	  37.3109000000	  50.3488000000
H	   4.6650000000	  36.9902000000	  51.9059000000
H	   3.2883000000	  34.8306000000	  52.6360000000
H	   2.5631000000	  33.9271000000	  51.3476000000
O	   5.4749300000	  33.8433000000	  46.9612000000
O	   5.1185500000	  32.3460000000	  45.3449000000
C	   6.7413000000	  33.3551000000	  46.6173000000
C	   6.5476900000	  32.2974000000	  45.5125000000
C	   4.7443900000	  33.6057000000	  45.8213000000
H	   7.4318700000	  34.1363000000	  46.2447000000
H	   7.2063300000	  32.9775000000	  47.4928000000
H	   7.1154600000	  32.5871000000	  44.6749000000
H	   6.9668300000	  31.3596000000	  45.9003000000
H	   3.6787200000	  33.6198000000	  46.0662000000
H	   4.9808300000	  34.3825000000	  45.0737000000
O	   4.3757100000	  31.8319000000	  50.9756000000
O	   5.2707800000	  33.3199000000	  49.6874000000
C	   5.3901600000	  32.4139000000	  51.9081000000
C	   6.0899800000	  33.3219000000	  50.9039000000
C	   4.7806100000	  32.0851000000	  49.6556000000
H	   4.9135900000	  32.8801000000	  52.7573000000
H	   6.0436700000	  31.7091000000	  52.3565000000
H	   6.0443700000	  34.4139000000	  51.2633000000
H	   7.1293000000	  32.9768000000	  50.7904000000
H	   5.5429300000	  31.3722000000	  49.3448000000
H	   3.9549300000	  32.0228000000	  48.8485000000
N	   3.2504000000	  36.9286000000	  45.6413000000
S	   3.5763400000	  37.1987000000	  44.1085000000
O	   4.4549900000	  38.3420000000	  43.7559000000
O	   3.7448000000	  35.9293000000	  43.4666000000
C	   1.9345500000	  37.7319000000	  43.4911000000
F	   2.0583900000	  38.2312000000	  42.2973000000
F	   1.3926500000	  38.6665000000	  44.2323000000
F	   1.0350300000	  36.7495000000	  43.3962000000
S	   4.0455900000	  37.4098000000	  46.8905000000
O	   5.2723100000	  38.1686000000	  46.7555000000
O	   4.1229400000	  36.3981000000	  47.9392000000
C	   2.8876100000	  38.5639000000	  47.5899000000
F	   3.2051100000	  38.8753000000	  48.8353000000
F	   2.7524400000	  39.6725000000	  46.9662000000
F	   1.7016400000	  38.0293000000	  47.6648000000
N	   8.1272400000	  37.2860000000	  50.3617000000
S	   7.8727400000	  36.6363000000	  48.9066000000
O	   6.7500800000	  35.6717000000	  48.8309000000
O	   8.0569200000	  37.5222000000	  47.7715000000
C	   9.3118400000	  35.4824000000	  48.8527000000
F	   9.2696900000	  34.7232000000	  47.8286000000
F	   9.1597100000	  34.5619000000	  49.7972000000
F	  10.5220000000	  35.9987000000	  48.9829000000
S	   8.6190100000	  38.7738000000	  50.6787000000
O	   8.9270700000	  39.6434000000	  49.5903000000
O	   9.5157600000	  38.7642000000	  51.8245000000
C	   7.1040800000	  39.4273000000	  51.3326000000
F	   6.8678300000	  39.0016000000	  52.5662000000
F	   7.1365900000	  40.7564000000	  51.3547000000
F	   6.0473900000	  39.0996000000	  50.6242000000
