32

Li	  36.3297000000	  16.7264000000	   7.2740400000
N	  38.2438000000	  14.8555000000	   9.7086600000
S	  38.5695000000	  14.5910000000	   8.1974100000
O	  37.6989000000	  15.3013000000	   7.3308800000
O	  40.0074000000	  14.5357000000	   8.0031400000
C	  38.1152000000	  12.7999000000	   7.9504400000
F	  38.0569000000	  12.5337000000	   6.6589400000
F	  36.8604000000	  12.5007000000	   8.4177300000
F	  38.8484000000	  11.9337000000	   8.5393000000
S	  37.3011000000	  15.9515000000	  10.3667000000
O	  36.1448000000	  16.2927000000	   9.5450400000
O	  37.9413000000	  17.0090000000	  10.9958000000
C	  36.5763000000	  15.0432000000	  11.7528000000
F	  35.9664000000	  15.8754000000	  12.6022000000
F	  35.7919000000	  14.0818000000	  11.2820000000
F	  37.5123000000	  14.3669000000	  12.3998000000
S	  45.4984000000	  18.5575000000	  -0.7241167399
S	  44.4195000000	  19.7732000000	   0.6559832601
S	  43.9107000000	  18.5977000000	   2.3307500000
S	  40.1724000000	  18.0719000000	   5.6631800000
S	  38.1396000000	  17.6449000000	   5.4135700000
S	  37.0628000000	  18.6734000000	   6.9966800000
S	  41.1324000000	  19.2706000000	   4.1109200000
S	  41.9141000000	  18.1220000000	   2.6155200000
S	  41.7426000000	  13.3930000000	  -0.1926167399
S	  40.5908000000	  11.9082000000	   0.5257832601
S	  38.6622000000	  12.3558000000	   1.2116500000
S	  35.4559000000	  13.8336000000	   4.1424200000
S	  34.9094000000	  14.1796000000	   6.1944300000
S	  34.3660000000	  16.2755000000	   6.6336200000
S	  37.4438000000	  14.2050000000	   3.8829100000
S	  38.4432000000	  12.4791000000	   3.3035600000
