28

Li	  26.5576000000	  50.7238000000	  31.8397000000
O	  26.5656000000	  51.5586000000	  33.6175000000
O	  25.5623000000	  51.4302000000	  35.6476000000
C	  25.5707000000	  52.5756000000	  33.6953000000
C	  24.6360000000	  52.0653000000	  34.7836000000
C	  26.5537000000	  50.9933000000	  34.8685000000
H	  25.8921000000	  53.5442000000	  33.9996000000
H	  25.0349000000	  52.6187000000	  32.6975000000
H	  24.1079000000	  52.7980000000	  35.3283000000
H	  23.9148000000	  51.4355000000	  34.3660000000
H	  26.5041000000	  49.9167000000	  34.8587000000
H	  27.4454000000	  51.3000000000	  35.3975000000
S	  19.1457000000	  50.6515000000	  25.9671000000
S	  20.4668000000	  50.8083000000	  27.5676000000
S	  21.4393000000	  52.6630000000	  27.6824000000
S	  26.3177000000	  53.0678000000	  29.6586000000
S	  27.3085000000	  51.2093000000	  29.3473000000
S	  28.6320000000	  50.6173000000	  30.8091000000
S	  24.7676000000	  53.3318000000	  28.3837000000
S	  22.8684000000	  52.7340000000	  29.0944000000
S	  19.2495000000	  44.8368000000	  28.5019000000
S	  18.4675000000	  45.1917000000	  30.5413000000
S	  20.0577000000	  45.8501000000	  31.8152000000
S	  22.5736000000	  49.9877000000	  31.7281000000
S	  24.4613000000	  49.6795000000	  30.6385000000
S	  25.7531000000	  48.7056000000	  31.9372000000
S	  20.8890000000	  49.0393000000	  30.8598000000
S	  19.8460000000	  47.8979000000	  32.2422000000
