35

Li	  32.3852000000	  44.1676000000	  11.1616000000
O	  30.2686000000	  42.6277000000	   9.0280100000
O	  31.7499000000	  44.2714000000	   9.3596200000
C	  29.5826000000	  43.7227000000	   8.5816100000
C	  30.5427000000	  44.8579000000	   8.8326500000
C	  31.6163000000	  42.9796000000	   8.9063200000
H	  29.1786000000	  43.5607000000	   7.5759200000
H	  28.6720000000	  43.9325000000	   9.2131800000
H	  30.6251000000	  45.3328000000	   7.8700000000
H	  30.1525000000	  45.5409000000	   9.4891900000
H	  32.3019000000	  42.2765000000	   9.4026700000
H	  31.9545000000	  43.0076000000	   7.8636700000
N	  30.0782000000	  45.8368000000	  13.7280000000
S	  29.9592000000	  44.2853000000	  13.4889000000
O	  30.9350000000	  43.7293000000	  12.5317000000
O	  29.7250000000	  43.6076000000	  14.7708000000
C	  28.3485000000	  44.0544000000	  12.7220000000
F	  28.0511000000	  42.8221000000	  12.2907000000
F	  28.3882000000	  44.8912000000	  11.7372000000
F	  27.3748000000	  44.4631000000	  13.5084000000
S	  31.0412000000	  46.8278000000	  13.0058000000
O	  31.5884000000	  46.2358000000	  11.7953000000
O	  31.9437000000	  47.5186000000	  13.8861000000
C	  29.8842000000	  48.1588000000	  12.3818000000
F	  29.2423000000	  48.7494000000	  13.3395000000
F	  30.4668000000	  49.0726000000	  11.6264000000
F	  28.9496000000	  47.5957000000	  11.6524000000
S	  37.0027000000	  41.5663000000	  13.5148000000
S	  36.7281000000	  41.8527000000	  15.6141000000
S	  35.8494000000	  40.2452000000	  16.3640000000
S	  32.3716000000	  40.6356000000	  12.8754000000
S	  33.8189000000	  41.0803000000	  11.3540000000
S	  34.1631000000	  43.1422000000	  11.1887000000
S	  33.2030000000	  39.3168000000	  14.3368000000
S	  33.7746000000	  40.2947000000	  16.1266000000
