35

Li	   1.2681800000	  35.8957000000	  35.0242000000
O	   2.8297500000	  36.7178000000	  35.3553000000
O	   3.7546300000	  38.2823000000	  36.5196000000
C	   3.8188400000	  37.2766000000	  34.5121000000
C	   4.5713700000	  38.3010000000	  35.3370000000
C	   3.3450300000	  36.9976000000	  36.6032000000
H	   4.5238500000	  36.5217000000	  34.0712000000
H	   3.2087200000	  37.7740000000	  33.7427000000
H	   5.5807500000	  37.9514000000	  35.5036000000
H	   4.6431600000	  39.2912000000	  34.8308000000
H	   2.6324200000	  36.7362000000	  37.4077000000
H	   4.2202600000	  36.3648000000	  36.8123000000
N	  -0.4531585005	  39.6024000000	  35.0314000000
S	  -0.1658585005	  41.1250000000	  34.9261000000
O	  -1.1639585005	  41.8362000000	  34.1477000000
O	   0.3589414995	  41.7772000000	  36.1317000000
C	   1.1757300000	  40.9793000000	  33.7239000000
F	   0.8117414995	  40.3282000000	  32.6505000000
F	   2.2218300000	  40.3654000000	  34.3338000000
F	   1.6627000000	  42.1535000000	  33.3447000000
S	  -0.0743585005	  38.6258000000	  36.2218000000
O	   0.9040640000	  39.1748000000	  37.1169000000
O	   0.0429414995	  37.2296000000	  35.8676000000
C	  -1.5918585005	  38.6834000000	  37.1398000000
F	  -2.5535585005	  37.9981000000	  36.6166000000
F	  -1.4178585005	  38.2492000000	  38.3629000000
F	  -2.0851585005	  39.9059000000	  37.2002000000
S	   0.8968680000	  35.6513000000	  32.7742000000
S	   1.7405000000	  35.4985000000	  30.7917000000
S	   3.7363700000	  34.6339000000	  30.6933000000
S	   2.8078100000	  31.7012000000	  34.0129000000
S	   2.9852000000	  33.4522000000	  35.1111000000
S	   1.2597700000	  33.7483000000	  36.2009000000
S	   4.2078400000	  31.5376000000	  32.4362000000
S	   3.5594600000	  32.4737000000	  30.6316000000
