61

Li	   9.5921000000	  46.9237000000	  28.9094000000
O	  13.1900000000	  47.6520000000	  31.0326000000
O	  11.1568000000	  47.0974000000	  30.3418000000
C	  12.4191000000	  47.9904000000	  32.2019000000
C	  10.9605000000	  47.7848000000	  31.5889000000
C	  12.4582000000	  46.8448000000	  30.2637000000
H	  12.7964000000	  47.3584000000	  33.0407000000
H	  12.7140000000	  49.0072000000	  32.5424000000
H	  10.2642000000	  47.2725000000	  32.2515000000
H	  10.6212000000	  48.7575000000	  31.3002000000
H	  12.7574000000	  46.8524000000	  29.2238000000
H	  12.7081000000	  45.7700000000	  30.4414000000
O	   9.8163100000	  48.5318000000	  27.7712000000
O	   9.3761900000	  49.9092000000	  25.9847000000
C	  10.1472000000	  49.8039000000	  28.1528000000
C	   9.5466500000	  50.7411000000	  27.1175000000
C	   9.1295000000	  48.6354000000	  26.5298000000
H	   9.7490500000	  50.0377000000	  29.1735000000
H	  11.2881000000	  49.9411000000	  28.1188000000
H	   8.5709800000	  50.9595000000	  27.5345000000
H	  10.1399000000	  51.6754000000	  26.9565000000
H	   9.5729200000	  48.0449000000	  25.7955000000
H	   8.1237900000	  48.3864000000	  26.6385000000
N	   9.6375200000	  43.3966000000	  32.2596000000
S	   8.6846000000	  44.4672000000	  31.5880000000
O	   7.9965900000	  45.2579000000	  32.5459000000
O	   9.3068200000	  45.1418000000	  30.5230000000
C	   7.3841300000	  43.4211000000	  30.8207000000
F	   6.4627900000	  44.0963000000	  30.1639000000
F	   6.7668900000	  42.5879000000	  31.6108000000
F	   7.9366800000	  42.7576000000	  29.8663000000
S	  11.0819000000	  43.2712000000	  31.8239000000
O	  11.9707000000	  44.1921000000	  32.5139000000
O	  11.3016000000	  43.1120000000	  30.4142000000
C	  11.4416000000	  41.6268000000	  32.5149000000
F	  11.8187000000	  41.8162000000	  33.7757000000
F	  10.4117000000	  40.7850000000	  32.4962000000
F	  12.4743000000	  41.0748000000	  31.9445000000
N	   7.4385800000	  48.4127000000	  31.8239000000
S	   6.7748000000	  48.2531000000	  33.2935000000
O	   5.4385700000	  47.6977000000	  33.3191000000
O	   7.7536900000	  47.8545000000	  34.2795000000
C	   6.4420200000	  50.0306000000	  33.7054000000
F	   5.2597000000	  50.3859000000	  33.1738000000
F	   7.3930800000	  50.8647000000	  33.3298000000
F	   6.3482200000	  50.2475000000	  34.9949000000
S	   6.8161700000	  47.9767000000	  30.4300000000
O	   5.6293300000	  47.1969000000	  30.5330000000
O	   7.8109300000	  47.5320000000	  29.4566000000
C	   6.3770400000	  49.6611000000	  29.7100000000
F	   5.1515100000	  49.9626000000	  29.9264000000
F	   7.1082200000	  50.6427000000	  30.2204000000
F	   6.5696500000	  49.6961000000	  28.4032000000
S	  10.7818000000	  45.3614000000	  27.6718000000
S	   8.6971900000	  44.9518000000	  27.2190000000
S	   7.9062800000	  45.8885000000	  25.4809000000
S	   9.1353800000	  42.3400000000	  21.5835000000
S	   9.3341600000	  43.0777000000	  19.6517000000
S	  10.3031000000	  41.5852000000	  18.3938000000
S	   9.3166700000	  43.7845000000	  23.1177000000
S	   7.5581000000	  44.2644000000	  24.2328000000
