57

Li	  47.0334000000	  25.5919000000	  55.9445000000
O	  45.6947000000	  24.9149000000	  54.7331000000
C	  44.5295000000	  25.3671000000	  57.4139000000
C	  43.8134000000	  26.7009000000	  57.1430000000
C	  44.0348000000	  24.3937000000	  56.3803000000
C	  43.6774000000	  27.5532000000	  58.4147000000
C	  44.2911000000	  24.6695000000	  54.9017000000
C	  42.5837000000	  27.1654000000	  59.3961797015
C	  45.9735000000	  24.9863000000	  53.3367000000
H	  44.1777000000	  25.0180000000	  58.4182000000
H	  45.5438000000	  25.4026000000	  57.3855000000
H	  44.2241000000	  27.2538000000	  56.2698000000
H	  42.8286000000	  26.5162000000	  56.6947000000
H	  42.9555000000	  24.3853000000	  56.4403000000
H	  44.2390000000	  23.4027000000	  56.6630000000
H	  44.5789000000	  27.6311000000	  58.9702000000
H	  43.5759000000	  28.5597000000	  58.0188000000
H	  43.6762000000	  25.5055000000	  54.5574000000
H	  44.0001000000	  23.8065000000	  54.2868000000
H	  41.7314000000	  27.1009000000	  58.6968000000
H	  42.6942000000	  26.2364000000	  59.8661797015
H	  42.3816000000	  27.9454000000	  60.1371897015
H	  45.7177000000	  24.0833000000	  52.8530000000
H	  45.4906000000	  25.8355000000	  52.7866000000
H	  47.0140000000	  25.0921000000	  53.1847000000
O	  47.0215000000	  27.5356000000	  55.9593000000
C	  48.5055000000	  28.5066000000	  53.6721000000
C	  49.4433000000	  29.5498000000	  53.0426000000
C	  47.4106000000	  29.2639000000	  54.5127000000
C	  50.4709000000	  28.9304000000	  52.0879000000
C	  46.3157000000	  28.4109000000	  55.0836000000
C	  51.2585000000	  30.0968000000	  51.4081000000
C	  47.4764000000	  28.1339000000	  57.2085000000
H	  49.0119000000	  27.9402000000	  54.4717000000
H	  48.0195000000	  27.8863000000	  52.9268000000
H	  48.8009000000	  30.3370000000	  52.5228000000
H	  49.9752000000	  30.1847000000	  53.7808000000
H	  47.0596000000	  30.0646000000	  53.9007000000
H	  47.9414000000	  29.8902000000	  55.2504000000
H	  51.2505000000	  28.3303000000	  52.5990000000
H	  50.0355000000	  28.3553000000	  51.2873000000
H	  45.7573000000	  27.6880000000	  54.4188000000
H	  45.6269000000	  28.9217000000	  55.7025000000
H	  50.5330000000	  30.5328000000	  50.8173000000
H	  51.5312000000	  30.9037000000	  52.1060000000
H	  52.1592000000	  29.8429000000	  50.8380000000
H	  48.2952000000	  28.8197000000	  57.0943000000
H	  46.6673000000	  28.5357000000	  57.8137000000
H	  47.7992000000	  27.2697000000	  57.8245000000
S	  57.2061000000	  28.2148000000	  54.3601000000
S	  55.2038000000	  28.1704000000	  53.6560000000
S	  54.7515000000	  26.4084000000	  52.5757000000
S	  50.8803000000	  24.9563000000	  55.5183000000
S	  48.9167000000	  24.4397000000	  55.3680000000
S	  47.9931000000	  24.2340000000	  57.2497000000
S	  52.1689000000	  24.3539000000	  53.9806000000
S	  52.7439000000	  25.9087000000	  52.6637000000
