42

Li	  15.5950000000	  12.7050000000	  36.2203000000
O	  16.8169000000	   9.1742900000	  34.9056000000
O	  16.0465000000	  10.9630000000	  35.9258000000
C	  16.7820000000	   8.7602400000	  36.2174000000
C	  16.4367000000	  10.0318000000	  36.9499000000
C	  15.8296000000	  10.1166000000	  34.8196000000
H	  15.9617000000	   8.0305300000	  36.3244000000
H	  17.7305000000	   8.3474500000	  36.6539000000
H	  15.6456000000	   9.9018900000	  37.6308000000
H	  17.3192000000	  10.4073000000	  37.4850000000
H	  16.0305000000	  10.6688000000	  33.9298000000
H	  14.8169000000	   9.7502200000	  34.6857000000
N	  14.9354000000	  13.0128000000	  38.9474000000
S	  14.1835000000	  14.2017000000	  38.2841000000
O	  14.6367000000	  14.3961000000	  36.9248000000
O	  12.7532000000	  14.1698000000	  38.4962000000
C	  14.8043000000	  15.6544000000	  39.2000000000
F	  14.4536000000	  15.5625000000	  40.4625000000
F	  14.2920000000	  16.8676000000	  38.9150000000
F	  16.0992000000	  15.7308000000	  39.0710000000
S	  14.3158000000	  12.1492000000	  40.0701000000
O	  13.9201000000	  10.8449000000	  39.6666000000
O	  13.4396000000	  12.8415000000	  40.9873000000
C	  15.7894000000	  11.7814000000	  41.0771000000
F	  15.5749000000	  11.0671000000	  42.1503000000
F	  16.6658000000	  10.9814000000	  40.4498000000
F	  16.4745000000	  12.8099000000	  41.5413000000
N	  19.5336000000	  13.9582000000	  35.9383000000
S	  18.8866000000	  13.2171000000	  37.1126000000
O	  17.4349000000	  13.3827000000	  37.1719000000
O	  19.4309000000	  11.8925000000	  37.3112000000
C	  19.5553000000	  14.0937000000	  38.5254000000
F	  19.0010000000	  13.7837000000	  39.6150000000
F	  19.4448000000	  15.3776000000	  38.3664000000
F	  20.8541000000	  13.7972000000	  38.5447000000
S	  19.7412000000	  13.4729000000	  34.5019000000
O	  19.3217000000	  14.4664000000	  33.5304000000
O	  19.3314000000	  12.0974000000	  34.3313000000
C	  21.5974000000	  13.4207000000	  34.4018000000
F	  22.0589000000	  14.6135000000	  34.6197000000
F	  22.1516000000	  12.6339000000	  35.3064000000
F	  21.9879000000	  13.0477000000	  33.2046000000
