79

Li	  13.3624000000	  21.8879000000	  54.2168000000
O	  13.6068000000	  20.5454000000	  55.7532000000
O	  13.2637000000	  18.8797000000	  57.2804000000
C	  14.8851000000	  20.1309000000	  56.3611000000
C	  14.4101000000	  19.6292000000	  57.6927000000
C	  12.6491000000	  19.6328000000	  56.2544000000
H	  15.3440000000	  19.2546000000	  55.9106000000
H	  15.7627000000	  20.7510000000	  56.4269000000
H	  15.0842000000	  19.0195000000	  58.2548000000
H	  14.3701000000	  20.5101000000	  58.2291000000
H	  11.7648000000	  20.1177000000	  56.5745000000
H	  12.3136000000	  18.9836000000	  55.4456000000
O	  17.0030000000	  21.0022000000	  52.1650000000
O	  15.2222000000	  21.7627000000	  53.1442000000
C	  17.4058000000	  21.2604000000	  53.4648000000
C	  16.3732000000	  22.3294000000	  53.7596000000
C	  15.6481000000	  21.1356000000	  52.0050000000
H	  17.3072000000	  20.3768000000	  54.0674000000
H	  18.4228000000	  21.6301000000	  53.5207000000
H	  16.3165000000	  22.4813000000	  54.8483000000
H	  16.6296000000	  23.3186000000	  53.3443000000
H	  15.5111000000	  21.7474000000	  51.1161000000
H	  15.0303000000	  20.2505000000	  51.9353000000
O	  12.7286000000	  20.5608000000	  52.9167000000
O	  12.3533000000	  18.9479000000	  51.5120000000
C	  11.9868000000	  21.1406000000	  51.7607000000
C	  11.4458000000	  19.8827000000	  51.0685000000
C	  12.4742000000	  19.1975000000	  52.8515000000
H	  11.2270000000	  21.9324000000	  52.0893000000
H	  12.7215000000	  21.5912000000	  51.1201000000
H	  10.4400000000	  19.6448000000	  51.4436000000
H	  11.5180000000	  19.8745000000	  49.9430000000
H	  13.3781000000	  18.6482000000	  53.0388000000
H	  11.6397000000	  18.9095000000	  53.4934000000
N	  11.2906000000	  25.2505000000	  52.0965000000
S	  12.7410000000	  24.8875000000	  52.6564000000
O	  13.3741000000	  25.9065000000	  53.4495000000
O	  12.8631000000	  23.4892000000	  53.1194000000
C	  13.7319000000	  24.8682000000	  51.0366000000
F	  15.0257000000	  24.6993000000	  51.2300000000
F	  13.5819000000	  25.9296000000	  50.2541000000
F	  13.3365000000	  23.9146000000	  50.2514000000
S	  10.3458000000	  26.4503000000	  52.4320000000
O	  10.8569000000	  27.3668000000	  53.4324000000
O	   8.9218600000	  26.0573000000	  52.4309000000
C	  10.2942000000	  27.5182000000	  50.9502000000
F	  10.1736000000	  26.8061000000	  49.8536000000
F	   9.3568800000	  28.4283000000	  50.9833000000
F	  11.4084000000	  28.2190000000	  50.8845000000
N	   8.6802700000	  21.5238000000	  53.8612000000
S	   9.6438800000	  22.3479000000	  54.7807000000
O	  11.0415000000	  21.9276000000	  54.7536000000
O	   9.3238600000	  23.8043000000	  54.9080000000
C	   9.0747200000	  21.6650000000	  56.4311000000
F	   7.9308400000	  22.2063000000	  56.8436000000
F	   9.9582600000	  21.8706000000	  57.3549000000
F	   8.8804500000	  20.3704000000	  56.3247000000
S	   7.2551200000	  22.1318000000	  53.4805000000
O	   7.2098200000	  23.3818000000	  52.7698000000
O	   6.3041800000	  21.9197000000	  54.5354000000
C	   6.5840800000	  20.9525000000	  52.2919000000
F	   5.2838100000	  21.1487000000	  52.0600000000
F	   7.1179800000	  21.1144000000	  51.0821000000
F	   6.6731800000	  19.6564000000	  52.6426000000
N	  15.8673000000	  23.9634000000	  57.5564000000
S	  14.6856000000	  24.4377000000	  56.7207000000
O	  14.5839000000	  25.8747000000	  56.6260000000
O	  14.3893000000	  23.6119000000	  55.5612000000
C	  13.3515000000	  24.0768000000	  58.0083000000
F	  13.5551000000	  24.6232000000	  59.1975897015
F	  13.3136000000	  22.8107000000	  58.1879000000
F	  12.1464000000	  24.4552000000	  57.5768000000
S	  17.2620000000	  24.6425000000	  57.7442000000
O	  17.5324000000	  25.3442000000	  58.9608000000
O	  17.6546000000	  25.3447000000	  56.5160000000
C	  18.4353000000	  23.2705000000	  57.6797000000
F	  18.1932000000	  22.3605000000	  58.5963000000
F	  18.4412000000	  22.6479000000	  56.5027000000
F	  19.6636000000	  23.7547000000	  57.8646000000
