57

Li	  46.7386000000	  26.8449000000	  51.9382000000
O	  45.5455000000	  26.7115000000	  50.3512000000
C	  42.7904000000	  25.0334000000	  52.0218000000
C	  42.4268000000	  24.6522000000	  53.4897000000
C	  44.0956000000	  25.8037000000	  51.8150000000
C	  40.9237000000	  24.2992000000	  53.5944000000
C	  44.1375000000	  26.3330000000	  50.3410000000
C	  40.3798000000	  24.3511000000	  55.0161000000
C	  45.9772000000	  27.3394000000	  49.1587000000
H	  41.9824000000	  25.7019000000	  51.6560000000
H	  42.7413000000	  24.1137000000	  51.3455000000
H	  42.8940000000	  23.7817000000	  53.8724000000
H	  42.4974000000	  25.5012000000	  54.1901000000
H	  44.9107000000	  25.0865000000	  51.9714000000
H	  44.0965000000	  26.5360000000	  52.6114000000
H	  40.3494000000	  24.9842000000	  52.9913000000
H	  40.7185000000	  23.3070000000	  53.1907000000
H	  43.3819000000	  27.1131000000	  50.1591000000
H	  44.0667000000	  25.4643000000	  49.6023000000
H	  40.5531000000	  25.2695000000	  55.5118000000
H	  39.2896000000	  24.2058000000	  55.0133000000
H	  40.7010000000	  23.4779000000	  55.5721000000
H	  46.0836000000	  26.5387000000	  48.3743000000
H	  45.2795000000	  28.0751000000	  48.8469000000
H	  46.9005000000	  27.7599000000	  49.2877000000
O	  46.2360000000	  28.0164000000	  53.1748000000
C	  46.1070000000	  31.4946000000	  51.6721000000
C	  46.8837000000	  32.2623000000	  50.5795000000
C	  46.1524000000	  29.9843000000	  51.5994000000
C	  46.8463000000	  33.7680000000	  50.7322000000
C	  46.1017000000	  29.4305000000	  53.0499000000
C	  47.3944000000	  34.3754000000	  52.0601000000
C	  46.3354000000	  27.6956000000	  54.5633000000
H	  45.0679000000	  31.7637000000	  51.5571000000
H	  46.3823000000	  31.8622000000	  52.6920000000
H	  47.9273000000	  31.9773000000	  50.7732000000
H	  46.6954000000	  31.9020000000	  49.5519000000
H	  47.1116000000	  29.6751000000	  51.1183000000
H	  45.3295000000	  29.6244000000	  51.0666000000
H	  47.3755000000	  34.2703000000	  49.9403000000
H	  45.7650000000	  33.9682000000	  50.6795000000
H	  45.1544000000	  29.8327000000	  53.4578000000
H	  46.9182000000	  29.9050000000	  53.5815000000
H	  48.4778000000	  34.0049000000	  52.1090000000
H	  47.4034000000	  35.4752000000	  51.9883000000
H	  46.9423000000	  34.0262000000	  52.9703000000
H	  47.1125000000	  28.1546000000	  55.1587000000
H	  45.3879000000	  27.9118000000	  55.0544000000
H	  46.4441000000	  26.6340000000	  54.6298000000
S	  54.4626000000	  33.1983000000	  49.7730000000
S	  52.7449000000	  32.9225000000	  48.6406000000
S	  50.9425000000	  32.7174000000	  49.7211000000
S	  49.9349000000	  27.4675000000	  50.9751000000
S	  49.1983000000	  26.3841000000	  52.6278000000
S	  47.8303000000	  24.9538000000	  52.1648000000
S	  49.9054000000	  29.5893000000	  51.3461000000
S	  50.0809000000	  30.7184000000	  49.5927000000
