33

Li	  48.9561000000	  25.5028000000	  47.0440000000
O	  49.6028000000	  25.0067000000	  45.4283000000
C	  47.4412000000	  22.0430000000	  44.2857000000
C	  45.9916000000	  21.7909000000	  44.4130000000
C	  47.9001000000	  23.4267000000	  44.7862000000
C	  45.5393000000	  20.4199000000	  43.8176000000
C	  49.3519000000	  23.6272000000	  45.1437000000
C	  44.1098000000	  20.0064000000	  44.1958000000
C	  49.8133000000	  25.8964000000	  44.3398000000
H	  47.6714000000	  22.0375000000	  43.1833000000
H	  47.9522000000	  21.1691000000	  44.7470000000
H	  45.7478000000	  21.7001000000	  45.4744000000
H	  45.3076000000	  22.6442000000	  44.0713000000
H	  47.3352000000	  23.5830000000	  45.6831000000
H	  47.5339000000	  24.1578000000	  44.0421000000
H	  45.6569000000	  20.5173000000	  42.7788000000
H	  46.2458000000	  19.6543000000	  44.0063000000
H	  50.1180000000	  23.3330000000	  44.3562000000
H	  49.5595000000	  22.8732000000	  45.9565000000
H	  43.9479000000	  19.8841000000	  45.3086000000
H	  43.4212000000	  20.7628000000	  43.8460000000
H	  43.7858000000	  19.0879000000	  43.6407000000
H	  49.4213000000	  25.6690000000	  43.3951000000
H	  49.5757000000	  26.8355000000	  44.7991000000
H	  50.8708000000	  26.0050000000	  44.1486000000
S	  55.5258000000	  31.5240000000	  51.0268000000
S	  53.7201000000	  30.5422000000	  50.9486000000
S	  52.6020000000	  30.8611000000	  49.2683000000
S	  51.4578000000	  26.2170000000	  47.9545000000
S	  50.2962000000	  25.7201000000	  49.5673000000
S	  48.6395000000	  24.4959000000	  48.8409000000
S	  51.1415000000	  28.2070000000	  47.2776000000
S	  52.8428000000	  29.5049000000	  47.5569000000
