32

Li	  54.4364000000	  12.7388000000	  26.3326000000
N	  50.5522000000	  13.8071000000	  27.5192000000
S	  51.2090000000	  12.4410000000	  27.6636000000
O	  50.2227000000	  11.3667000000	  27.7064000000
O	  52.5305000000	  12.3031000000	  27.0199000000
C	  51.7342000000	  12.6068000000	  29.4232000000
F	  52.9414000000	  13.1674000000	  29.5103000000
F	  51.7939000000	  11.4390000000	  30.0734000000
F	  50.8623000000	  13.3360000000	  30.0676000000
S	  50.6844000000	  15.0100000000	  26.4600000000
O	  49.5354000000	  15.7761000000	  26.1674000000
O	  51.5915000000	  14.7467000000	  25.3586000000
C	  51.7326000000	  16.0981000000	  27.5217000000
F	  51.1244000000	  16.3041000000	  28.6189000000
F	  52.9227000000	  15.5462000000	  27.7868000000
F	  52.0024000000	  17.2946000000	  26.9025000000
S	  55.6508000000	  11.2668000000	  27.4437000000
S	  56.5988000000	  12.8109000000	  28.5978000000
S	  56.0293000000	  12.8397000000	  30.6497000000
S	  56.7835000000	  17.2273000000	  32.9979000000
S	  58.1858000000	  17.1978000000	  34.7147000000
S	  58.9974000000	  19.1109000000	  35.2924000000
S	  55.6421000000	  15.4632000000	  33.0703000000
S	  54.9293000000	  14.6544000000	  31.2638000000
S	  55.3710000000	  14.5971000000	  25.4975000000
S	  54.3595000000	  13.3405000000	  24.0383000000
S	  55.2926000000	  11.5386000000	  23.4681000000
S	  59.5514060364	   9.7944800000	  21.8519000000
S	  60.8943560364	  10.0939000000	  20.1672000000
S	  62.8844260364	   9.8775500000	  20.8499000000
S	  58.5873000000	  11.6293000000	  22.2740000000
S	  56.5127000000	  11.7383000000	  21.7763000000
