48

Li	  23.1617000000	  58.6177000000	  28.7179000000
O	  23.3457000000	  56.5893000000	  28.5165000000
C	  19.7054000000	  56.5334000000	  27.9363000000
C	  18.8391000000	  56.8422000000	  26.6956000000
C	  21.1472000000	  56.4802000000	  27.6202000000
C	  17.3758000000	  56.9894000000	  26.9945000000
C	  22.0621000000	  56.0310000000	  28.7168000000
C	  16.5542000000	  57.5917000000	  25.8286000000
C	  24.2318000000	  55.7695000000	  27.7408000000
H	  19.3443000000	  55.5674000000	  28.3075000000
H	  19.4603000000	  57.2458000000	  28.7252000000
H	  19.2016000000	  57.6564000000	  26.0324000000
H	  18.9061000000	  55.9211000000	  26.0837000000
H	  21.4231000000	  57.4805000000	  27.2841000000
H	  21.2961000000	  55.8233000000	  26.8046000000
H	  16.9731000000	  56.1123000000	  27.3475000000
H	  17.3306000000	  57.6916000000	  27.8574000000
H	  22.1325000000	  54.9947000000	  28.8931000000
H	  21.6939000000	  56.3328000000	  29.7216000000
H	  17.0446000000	  58.4014000000	  25.3670000000
H	  16.3986000000	  56.8113000000	  25.0905000000
H	  15.5556000000	  57.9406000000	  26.1661000000
H	  25.1656000000	  56.3084000000	  27.7689000000
H	  24.2610000000	  54.7198000000	  28.0440000000
H	  24.0915000000	  55.8261000000	  26.6719000000
N	  26.7497000000	  58.4987000000	  30.1213000000
S	  25.9663000000	  57.8497000000	  31.2385000000
O	  26.4418000000	  58.2602000000	  32.5360000000
O	  24.5795000000	  57.8474000000	  31.0471000000
C	  26.4464000000	  56.1206000000	  31.0943000000
F	  27.7278000000	  55.9290000000	  31.4243000000
F	  26.2380000000	  55.6187000000	  29.9216000000
F	  25.7459000000	  55.3842000000	  31.9457000000
S	  26.3060000000	  59.4981161978	  29.0326000000
O	  26.4036000000	  60.8468461978	  29.5188000000
O	  25.1710000000	  59.0832000000	  28.2160000000
C	  27.8410000000	  59.3072261978	  27.9350000000
F	  29.0011000000	  59.2265461978	  28.6226000000
F	  27.7496000000	  58.1873000000	  27.2888000000
F	  28.0058000000	  60.2569161978	  27.0217000000
S	  15.9394000000	  62.5617461978	  37.2930000000
S	  17.7277000000	  61.3100861978	  37.2331000000
S	  19.1599000000	  61.7423061978	  35.6549000000
S	  19.4013000000	  59.8055761978	  30.6981000000
S	  21.4398000000	  59.3301461978	  30.1124000000
S	  21.8793000000	  60.1713061978	  28.2296000000
S	  19.3288000000	  61.2597261978	  32.2030000000
S	  18.7889000000	  60.4730661978	  34.0135000000
