60

Li	  42.9253000000	   9.5257600000	  19.1486000000
O	  41.8981000000	  10.7605000000	  15.7001000000
O	  42.1814000000	   9.4897700000	  17.4847000000
C	  40.7013000000	  10.0532000000	  15.8715000000
C	  40.7880000000	   9.5354600000	  17.3421000000
C	  42.7909000000	   9.9497000000	  16.4152000000
H	  39.8490000000	  10.7438000000	  15.7738000000
H	  40.6154000000	   9.2800300000	  15.1396000000
H	  40.2221000000	  10.3058000000	  17.9380000000
H	  40.3404000000	   8.5402200000	  17.5624000000
H	  43.1834000000	   9.1510300000	  15.7866000000
H	  43.6132000000	  10.5513000000	  16.6330000000
O	  44.9667000000	   9.6012900000	  18.8831000000
C	  45.5607000000	  12.8467000000	  18.8940000000
C	  45.4728000000	  14.3619000000	  19.1465000000
C	  45.5380000000	  11.7870000000	  20.0734000000
C	  45.2805000000	  15.2953000000	  17.8863000000
C	  45.9073000000	  10.3801000000	  19.5267000000
C	  45.6789000000	  16.8008000000	  18.1443000000
C	  45.5422000000	   8.3801000000	  18.4025000000
H	  46.5671000000	  12.7538000000	  18.4242000000
H	  44.7970000000	  12.4906000000	  18.1889000000
H	  44.5293000000	  14.4244000000	  19.7090000000
H	  46.2406000000	  14.6581000000	  19.8420000000
H	  44.4785000000	  11.5419000000	  20.3690000000
H	  46.1086000000	  12.0532000000	  20.9865000000
H	  45.8996000000	  14.9203000000	  17.1186000000
H	  44.3960000000	  15.1335000000	  17.3589000000
H	  46.3618000000	   9.7492100000	  20.3887000000
H	  46.7102000000	  10.5372000000	  18.8724000000
H	  46.7203000000	  16.8298000000	  18.5566000000
H	  45.6796000000	  17.3965000000	  17.2278000000
H	  45.0381000000	  17.2821000000	  18.8007000000
H	  46.5249000000	   8.3302300000	  17.9305000000
H	  45.5541000000	   7.6726800000	  19.2516000000
H	  44.7591000000	   8.2010000000	  17.5943000000
O	  42.5840000000	   7.9380200000	  19.9231000000
C	  40.3979000000	   5.8817600000	  18.4860000000
C	  40.0346000000	   4.7277400000	  19.4599000000
C	  41.8718000000	   6.1609500000	  18.4282000000
C	  38.6066000000	   4.1581000000	  19.2456000000
C	  42.5740000000	   6.5782700000	  19.6728000000
C	  37.3502000000	   4.9729200000	  19.7730000000
C	  43.2383000000	   8.1860700000	  21.1723000000
H	  39.6784000000	   6.7503200000	  18.6373000000
H	  40.0552000000	   5.6322300000	  17.4570000000
H	  40.7303000000	   4.0201300000	  19.1839000000
H	  40.3169000000	   4.9042500000	  20.4854000000
H	  41.9827000000	   6.9372600000	  17.6515000000
H	  42.4320000000	   5.3452700000	  17.9743000000
H	  38.4782000000	   3.8721200000	  18.1880000000
H	  38.5344000000	   3.2583200000	  19.8458000000
H	  43.6385000000	   6.3091600000	  19.4491000000
H	  42.2695000000	   6.0034800000	  20.5448000000
H	  37.1527000000	   5.8613600000	  19.2144000000
H	  36.4921000000	   4.3186000000	  19.8767000000
H	  37.4450000000	   5.3076500000	  20.7913000000
H	  42.5648000000	   7.9663000000	  21.9732000000
H	  44.1932000000	   7.6797200000	  21.3642000000
H	  43.4596000000	   9.2444200000	  21.3246000000
