68

Li	  51.9674000000	  30.0545000000	  15.8522000000
O	  52.4888000000	  30.3833000000	  14.1645000000
O	  53.3485000000	  30.3296000000	  11.9993000000
C	  52.4242000000	  31.7027000000	  13.5196000000
C	  52.6169000000	  31.5343000000	  12.0022000000
C	  52.6655000000	  29.5712000000	  13.0359000000
H	  51.4950000000	  32.1471000000	  13.8385000000
H	  53.2502000000	  32.2326000000	  13.9084000000
H	  51.6107000000	  31.4435000000	  11.5207000000
H	  53.1185000000	  32.3974000000	  11.6221000000
H	  53.2775000000	  28.7757000000	  13.3858000000
H	  51.7081000000	  29.2780000000	  12.7475000000
O	  53.3989000000	  30.0758000000	  17.4135000000
C	  56.2544000000	  27.6915000000	  16.5462000000
C	  56.8991000000	  26.5246000000	  17.4118000000
C	  55.1814000000	  28.3983000000	  17.3347000000
C	  58.0794000000	  25.8261000000	  16.7595000000
C	  54.5522000000	  29.6482000000	  16.6867000000
C	  58.8544000000	  24.8649000000	  17.7594000000
C	  53.6254000000	  30.7080000000	  18.6881000000
H	  55.7609000000	  27.3908000000	  15.6328000000
H	  57.0081000000	  28.4093000000	  16.1639000000
H	  57.2475000000	  26.9882000000	  18.3244000000
H	  56.0961000000	  25.8649000000	  17.7243000000
H	  55.6006000000	  28.6491000000	  18.3064000000
H	  54.3592000000	  27.7013000000	  17.4481000000
H	  57.6504000000	  25.3284000000	  15.8587000000
H	  58.8241000000	  26.6045000000	  16.3701000000
H	  54.3262000000	  29.4306000000	  15.6798000000
H	  55.2163000000	  30.4745000000	  16.5610000000
H	  59.8770160364	  24.7011000000	  17.4677000000
H	  58.9644000000	  25.3456000000	  18.7150000000
H	  58.2598000000	  23.9637000000	  17.7667000000
H	  53.9083000000	  31.7515000000	  18.6286000000
H	  52.7058000000	  30.8174000000	  19.1719000000
H	  54.3099000000	  30.1626000000	  19.2898000000
O	  50.9741000000	  31.4754000000	  16.3589000000
C	  47.2022000000	  31.7152000000	  16.9978000000
C	  46.2624000000	  32.1902000000	  18.1478000000
C	  48.6988000000	  32.0731000000	  17.2800000000
C	  44.7842000000	  31.9344000000	  17.8770000000
C	  49.5634000000	  31.5731000000	  16.0633000000
C	  43.8761000000	  32.5407000000	  18.8921000000
C	  51.5523000000	  32.8117000000	  16.5136000000
H	  46.8780000000	  32.1389000000	  16.0352000000
H	  47.0610000000	  30.6342000000	  16.9085000000
H	  46.5453000000	  31.8860000000	  19.0933000000
H	  46.4363000000	  33.2643000000	  18.0446000000
H	  49.0688000000	  31.6019000000	  18.2155000000
H	  48.8843000000	  33.1941000000	  17.3432000000
H	  44.5012000000	  32.0432000000	  16.8104000000
H	  44.6245000000	  30.8354000000	  17.9940000000
H	  49.2481000000	  32.0083000000	  15.1304000000
H	  49.2766000000	  30.5766000000	  15.8454000000
H	  44.2805000000	  32.2568000000	  19.9115000000
H	  43.8680000000	  33.6755000000	  18.8553000000
H	  42.8402000000	  32.2202000000	  18.8266000000
H	  52.6202000000	  32.7569000000	  16.7941000000
H	  51.2985000000	  33.6029000000	  15.7954000000
H	  51.1565000000	  33.2705000000	  17.4060000000
S	  55.1273000000	  31.5275000000	  24.4772000000
S	  54.0948000000	  29.7049000000	  24.3935000000
S	  52.8202000000	  29.6469000000	  22.7049000000
S	  50.7089000000	  27.0639000000	  19.3182000000
S	  50.3933000000	  28.7985000000	  18.0068000000
S	  50.9291000000	  28.2768000000	  15.9729000000
S	  52.6120000000	  27.0615000000	  20.3247000000
S	  52.3719000000	  27.6495000000	  22.3194000000
