50

Li	  56.4694000000	  27.9489000000	  24.2515000000
O	  55.4531000000	  26.8510000000	  22.9920000000
O	  53.7179000000	  26.4150000000	  21.5370000000
C	  54.2578000000	  26.5271000000	  23.6917000000
C	  53.1312000000	  26.8783000000	  22.7011000000
C	  55.0575000000	  26.7691000000	  21.6464000000
H	  54.3284000000	  25.4468000000	  23.8266000000
H	  54.2938000000	  27.0470000000	  24.6137000000
H	  52.0930000000	  26.4976000000	  22.8659000000
H	  52.9704000000	  27.9534000000	  22.7904000000
H	  55.3001000000	  27.7830000000	  21.1844000000
H	  55.6318000000	  25.9990000000	  21.3228000000
N	  60.5031760364	  27.8531000000	  22.6946000000
S	  59.8529360364	  27.4368000000	  24.0325000000
O	  60.4483260364	  28.0905000000	  25.2038000000
O	  58.4157000000	  27.4710000000	  23.8544000000
C	  60.3219860364	  25.6896000000	  24.1736000000
F	  61.5820660364	  25.4237000000	  24.0652000000
F	  59.6363260364	  24.9481000000	  23.2890000000
F	  59.8763760364	  25.3075000000	  25.4068000000
S	  61.1443360364	  29.1936000000	  22.2892000000
O	  61.2759160364	  30.1333000000	  23.3718000000
O	  60.7511960364	  29.6381000000	  20.9515000000
C	  62.8899860364	  28.7302000000	  21.9255000000
F	  63.5025660364	  29.5020000000	  20.9597000000
F	  63.6797860364	  28.9643000000	  22.9905000000
F	  63.0548560364	  27.4770000000	  21.5876000000
N	  56.4216000000	  32.2179000000	  22.9531000000
S	  55.0545000000	  32.5444000000	  23.6696000000
O	  54.1429000000	  33.4560000000	  23.0086000000
O	  54.4349000000	  31.5759000000	  24.5799000000
C	  55.7428000000	  33.6552000000	  24.9109000000
F	  56.2276000000	  34.7291000000	  24.4109000000
F	  56.6597000000	  33.1113000000	  25.6817000000
F	  54.8417000000	  34.0468000000	  25.7605000000
S	  57.0338000000	  30.7723000000	  22.9510000000
O	  56.1492000000	  29.6714000000	  23.2304000000
O	  58.4568000000	  30.7343000000	  23.3283000000
C	  57.1614000000	  30.5556000000	  21.1097000000
F	  57.6380000000	  29.3796000000	  20.8248000000
F	  55.9417000000	  30.7124000000	  20.5197000000
F	  57.9944000000	  31.4506000000	  20.5819000000
S	  56.6100000000	  28.5154000000	  26.3306000000
S	  56.6855000000	  26.3816000000	  26.0606000000
S	  55.4391000000	  25.2973000000	  27.3579000000
S	  52.8517000000	  23.1641000000	  23.4286000000
S	  51.6000000000	  21.5284000000	  22.9379000000
S	  49.7472000000	  21.7196000000	  23.7597000000
S	  53.6649000000	  22.8214000000	  25.3362000000
S	  53.5947000000	  24.6446000000	  26.3847000000
