41

Li	   7.3417500000	  51.4090000000	  48.8380000000
O	   8.3788000000	  50.6778000000	  50.2456000000
C	  11.5634000000	  48.8495000000	  49.6569000000
C	  12.1397000000	  47.9707000000	  48.5588000000
C	  10.1475000000	  49.4098000000	  49.2746000000
C	  13.4411000000	  47.3059000000	  48.8809000000
C	   9.7414000000	  50.4966000000	  50.2051000000
C	  13.9263000000	  46.3746000000	  47.7277000000
C	   7.9594500000	  51.4318000000	  51.4063000000
H	  12.1983000000	  49.6955000000	  49.7907000000
H	  11.5545000000	  48.2778000000	  50.6283000000
H	  11.4656000000	  47.1749000000	  48.2651000000
H	  12.1679000000	  48.5869000000	  47.6368000000
H	   9.3446800000	  48.6786000000	  49.1130000000
H	  10.4060000000	  49.8301000000	  48.2976000000
H	  14.2738000000	  47.9337000000	  49.1137000000
H	  13.2992000000	  46.7353000000	  49.8348000000
H	  10.2739000000	  51.4104000000	  49.8515000000
H	  10.2291000000	  50.3015000000	  51.1308000000
H	  13.1105000000	  45.7859000000	  47.3567000000
H	  14.1977000000	  46.9870000000	  46.9486000000
H	  14.8417000000	  45.7955000000	  47.9697000000
H	   6.8904600000	  51.6730000000	  51.3637000000
H	   8.1443600000	  50.8703000000	  52.3702000000
H	   8.2791800000	  52.4776000000	  51.4669000000
S	   8.3625600000	  52.9515000000	  47.8559000000
S	   9.1254700000	  51.7017000000	  46.3167000000
S	  11.1644000000	  51.7926000000	  46.3761000000
S	  11.1386000000	  50.0848000000	  41.7215000000
S	  10.9353000000	  51.5174000000	  40.1715000000
S	  12.3558000000	  51.4144000000	  38.6728000000
S	  12.4711000000	  50.9339000000	  43.1179000000
S	  12.1390000000	  50.4085000000	  45.1373000000
S	   6.3912300000	  49.9237000000	  47.4787000000
S	   5.1797700000	  50.2377000000	  49.1518000000
S	   4.6599400000	  52.2921000000	  49.1737000000
S	   2.7344100000	  54.4538000000	  45.6407000000
S	   4.6927700000	  54.9731000000	  44.9814000000
S	   5.0083300000	  54.5621000000	  42.9287000000
S	   2.5700500000	  52.4770000000	  46.3459000000
S	   2.6769900000	  52.5961000000	  48.4883000000
