49

Li	  58.9528000000	   6.4607000000	  49.4512000000
O	  55.9089000000	   8.2123000000	  50.7595000000
O	  58.0134000000	   8.0046100000	  50.3118000000
C	  56.3341000000	   9.5070400000	  50.9631000000
C	  57.7462000000	   9.1168200000	  51.2161000000
C	  56.7631000000	   7.7792600000	  49.8449000000
H	  56.2370000000	  10.1209000000	  50.1008000000
H	  55.8693000000	   9.8185200000	  51.8409000000
H	  58.2974000000	  10.0512000000	  51.0865000000
H	  57.8681000000	   8.8507200000	  52.2948000000
H	  56.5806000000	   6.7540800000	  49.7420000000
H	  56.5792000000	   8.2701600000	  48.8752000000
O	  60.4905760364	   6.7860200000	  50.7722000000
O	  61.5543660364	   7.7652700000	  52.5776000000
C	  61.9259160364	   6.8821900000	  50.5258000000
C	  62.3924460364	   7.9759600000	  51.4483000000
C	  60.6225460364	   6.7815000000	  52.1457000000
H	  62.4583060364	   5.9533900000	  50.6422000000
H	  62.0333560364	   7.1071600000	  49.4366000000
H	  63.4373460364	   7.8337100000	  51.8279000000
H	  62.2188860364	   8.9216600000	  50.9925000000
H	  59.6092860364	   6.9017900000	  52.5267000000
H	  60.9504660364	   5.7745800000	  52.5059000000
O	  59.1294360364	   7.1944300000	  47.8530000000
O	  60.5758460364	   8.5985700000	  46.9549000000
C	  59.6366460364	   6.6287000000	  46.6690000000
C	  60.9679760364	   7.3704900000	  46.3993000000
C	  59.2901160364	   8.4742600000	  47.4476000000
H	  59.8898760364	   5.5780200000	  46.9361000000
H	  58.8686000000	   6.5930900000	  45.8979000000
H	  61.7678260364	   6.9414300000	  47.0490000000
H	  61.3370960364	   7.3401900000	  45.4067000000
H	  58.6303000000	   8.7618400000	  46.6381000000
H	  59.1033650364	   9.0957100000	  48.3244000000
N	  58.9543000000	   1.9612200000	  49.7194000000
S	  59.0424000000	   0.6874838022	  50.6017000000
O	  59.8979560364	  -0.3401161978	  50.1187000000
O	  58.9286000000	   0.9006838022	  52.0333000000
C	  57.4089000000	  -0.0277161978	  50.3282000000
F	  57.3068000000	  -1.2324161978	  50.8906000000
F	  57.1513000000	  -0.2696161978	  49.0355000000
F	  56.4254000000	   0.7730838022	  50.7141000000
S	  59.7669260364	   3.3844300000	  49.7926000000
O	  60.7152760364	   3.6112400000	  50.8620000000
O	  58.8652000000	   4.4363400000	  49.3814000000
C	  60.8796460364	   3.1300800000	  48.3936000000
F	  61.7243660364	   2.1152000000	  48.6430000000
F	  60.2431960364	   2.9028900000	  47.2030000000
F	  61.7093760364	   4.1637000000	  48.2530000000
