31

Li	  45.0630000000	   7.3363600000	  37.7722000000
O	  46.6213000000	   6.8934400000	  34.4062000000
O	  45.8685000000	   7.9738300000	  36.2310000000
C	  47.7906000000	   7.5788800000	  34.9641000000
C	  47.2626000000	   8.5665500000	  36.0699000000
C	  45.5420000000	   7.5774100000	  34.9376000000
H	  48.4337000000	   6.7643700000	  35.3637000000
H	  48.2249000000	   8.1200800000	  34.1168000000
H	  47.5871000000	   8.6523300000	  37.1079000000
H	  47.2731000000	   9.5655900000	  35.6260000000
H	  45.4499000000	   8.4978800000	  34.3598000000
H	  44.5343000000	   7.1286400000	  34.8357000000
O	  43.1175000000	   6.5476500000	  37.5758000000
O	  41.5105000000	   5.0928100000	  38.0678000000
C	  42.8244000000	   5.8763500000	  36.3780000000
C	  41.5955000000	   5.1442100000	  36.6331000000
C	  41.9955000000	   6.3388500000	  38.4121000000
H	  42.6523000000	   6.6567800000	  35.5837000000
H	  43.6052000000	   5.1548900000	  36.1092000000
H	  40.7327000000	   5.7173900000	  36.2804000000
H	  41.4518000000	   4.1408400000	  36.1614000000
H	  42.2935000000	   6.2319400000	  39.4400000000
H	  41.2058000000	   7.0777300000	  38.3326000000
S	  44.7732000000	   9.1987500000	  38.9084000000
S	  45.3322000000	   7.6105300000	  40.1869000000
S	  46.6586000000	   6.2038100000	  39.1416000000
S	  45.4684000000	   2.3640100000	  35.7597000000
S	  46.5226000000	   0.8333838022	  34.8593000000
S	  46.4791000000	  -1.1164161978	  35.8034000000
S	  46.7258000000	   3.6226000000	  36.9090000000
S	  45.7371000000	   4.3921200000	  38.5615000000
