49

Li	   7.7320600000	  42.7437000000	  34.3355000000
O	   9.4208400000	  45.0077000000	  36.5843000000
O	   8.9748000000	  44.2312000000	  34.6386000000
C	  10.6595000000	  44.6550000000	  36.0658000000
C	  10.3850000000	  44.0759000000	  34.7050000000
C	   8.6655900000	  45.2482000000	  35.4605000000
H	  11.2204000000	  45.5760000000	  36.0447000000
H	  11.2052000000	  43.9275000000	  36.7073000000
H	  10.9165000000	  44.4702000000	  33.8640000000
H	  10.6872000000	  42.9870000000	  34.6653000000
H	   7.5719200000	  45.1390000000	  35.7786000000
H	   8.8416500000	  46.3026000000	  35.0792000000
O	   8.6870300000	  39.1470000000	  32.8723000000
O	   7.9943800000	  41.2049000000	  33.2964000000
C	   9.4347000000	  40.0017000000	  32.0086000000
C	   8.6206300000	  41.3045000000	  32.0183000000
C	   7.6461900000	  39.8743000000	  33.4311000000
H	  10.4131000000	  40.4152000000	  32.3474000000
H	   9.6625600000	  39.6001000000	  31.0344000000
H	   9.2278500000	  42.2536000000	  32.0112000000
H	   7.8418600000	  41.2089000000	  31.2430000000
H	   6.8253100000	  39.7198000000	  32.7527000000
H	   7.3024800000	  39.6277000000	  34.3759000000
O	   6.7185500000	  43.9954000000	  33.0104000000
O	   6.0630400000	  45.3593000000	  31.2938000000
C	   5.4484800000	  43.5896000000	  32.5707000000
C	   5.5325000000	  44.0786000000	  31.1317000000
C	   6.7838000000	  45.3481000000	  32.5069000000
H	   5.1496300000	  42.5184000000	  32.7501000000
H	   4.6754000000	  44.2556000000	  32.9838000000
H	   6.0539100000	  43.4058000000	  30.4468000000
H	   4.4983900000	  44.2732000000	  30.7141000000
H	   6.7227000000	  46.0900000000	  33.3012000000
H	   7.8134300000	  45.3107000000	  32.1044000000
N	   6.5700400000	  41.6402000000	  37.7181000000
S	   8.0854400000	  41.9317000000	  37.6258000000
O	   8.4288400000	  41.9759000000	  36.2407000000
O	   8.5482500000	  42.8947000000	  38.5290000000
C	   8.9424000000	  40.3627000000	  38.1870000000
F	   8.8961500000	  39.3311000000	  37.3727000000
F	   8.4544200000	  39.9699000000	  39.3695000000
F	  10.2613000000	  40.6284000000	  38.3542000000
S	   5.4482800000	  42.0361000000	  36.6825000000
O	   5.8792600000	  42.1550000000	  35.3165000000
O	   4.4655600000	  42.8907000000	  37.2053000000
C	   4.5903300000	  40.4085000000	  36.5804000000
F	   5.3688000000	  39.3860000000	  36.4185000000
F	   3.8288300000	  40.1740000000	  37.6589000000
F	   3.8023800000	  40.3950000000	  35.5792000000
