20

Li	  27.4871000000	   8.9150100000	  22.4795000000
O	  30.7774000000	  10.4635000000	  20.9021000000
O	  29.1980000000	   9.4819300000	  22.0217000000
C	  31.1147000000	   9.1525400000	  20.6077000000
C	  29.8994000000	   8.4574500000	  21.3470000000
C	  30.1330000000	  10.4856000000	  22.1268000000
H	  31.2134000000	   8.9627100000	  19.5434000000
H	  32.0633000000	   8.7966800000	  21.0780000000
H	  29.2697000000	   7.9022800000	  20.6013000000
H	  30.1685000000	   7.7255300000	  22.0811000000
H	  30.7695000000	  10.1991000000	  22.8785000000
H	  29.8217000000	  11.4621000000	  22.3464000000
S	  27.6282000000	   8.9896300000	  24.5814000000
S	  28.2265000000	   7.0240300000	  24.2461000000
S	  27.1941000000	   6.1228800000	  22.5786000000
S	  27.7545000000	   1.6095300000	  21.9476000000
S	  25.8984000000	   1.1363300000	  22.9730000000
S	  25.0708000000	  -0.6996161978	  22.3389000000
S	  27.4603000000	   3.2001200000	  20.6557000000
S	  28.4210000000	   4.8358300000	  21.5323000000
