88

Li	   8.4440700000	  22.1257000000	  46.5418000000
O	   8.2609000000	  23.5806000000	  45.3423000000
C	   5.8144300000	  23.7991000000	  42.4363000000
C	   4.3246900000	  23.5129000000	  42.2601000000
C	   6.3405200000	  23.5625000000	  43.8975000000
C	   3.8851700000	  23.5974000000	  40.8066000000
C	   7.8168100000	  23.4189000000	  43.9727000000
C	   2.3502700000	  23.5497000000	  40.6881000000
C	   8.5976800000	  24.9220000000	  45.5654000000
H	   6.0100500000	  24.8132000000	  42.1291000000
H	   6.3514500000	  23.1862000000	  41.7325000000
H	   4.0715900000	  22.5236000000	  42.7196000000
H	   3.7945700000	  24.2726000000	  42.8560000000
H	   5.8793900000	  22.6654000000	  44.3157000000
H	   6.0095300000	  24.3769000000	  44.5024000000
H	   4.3455300000	  24.4057000000	  40.3243000000
H	   4.3481200000	  22.6221000000	  40.3893000000
H	   8.3641800000	  24.0702000000	  43.2117000000
H	   7.9933100000	  22.3969000000	  43.7951000000
H	   1.8849700000	  24.1003000000	  39.9435000000
H	   1.9927100000	  22.5559000000	  40.6427000000
H	   1.7935100000	  24.0285000000	  41.5195000000
H	   9.6245400000	  25.2320000000	  45.2002000000
H	   7.8742400000	  25.5533000000	  45.0694000000
H	   8.5648500000	  25.0648000000	  46.6875000000
O	   6.7441000000	  21.1706000000	  46.2592000000
C	   4.4880600000	  22.8629000000	  48.7073000000
C	   4.5006700000	  24.1353000000	  49.5353000000
C	   5.6980200000	  22.6617000000	  47.7792000000
C	   3.5208600000	  24.0151000000	  50.7491000000
C	   5.5800800000	  21.3455000000	  46.9604000000
C	   1.9981500000	  23.8961000000	  50.4918000000
C	   6.9487900000	  19.9333000000	  45.5452000000
H	   3.5532300000	  22.6531000000	  48.1501000000
H	   4.5443200000	  21.9736000000	  49.3813000000
H	   5.5694200000	  24.2863000000	  49.9045000000
H	   4.2972500000	  25.0436000000	  48.9496000000
H	   6.6439700000	  22.8134000000	  48.2677000000
H	   5.6301000000	  23.3247000000	  46.9352000000
H	   3.9472300000	  23.2740000000	  51.4285000000
H	   3.5358600000	  24.9023000000	  51.3719000000
H	   4.7418100000	  21.2259000000	  46.2856000000
H	   5.6057100000	  20.5095000000	  47.6344000000
H	   1.6040300000	  24.4516000000	  49.6069000000
H	   1.7346700000	  22.9216000000	  50.2690000000
H	   1.5163100000	  24.1635000000	  51.4068000000
H	   6.0959000000	  19.6655000000	  44.9185000000
H	   7.8399600000	  20.1297000000	  44.8538000000
H	   7.0969000000	  19.2611000000	  46.3712000000
O	  10.2152000000	  21.3704000000	  46.2058000000
C	  11.7525000000	  23.7465000000	  46.1804000000
C	  12.4913000000	  25.0597000000	  45.7712000000
C	  11.6101000000	  22.8294000000	  44.9430000000
C	  13.1060000000	  25.8064000000	  46.9877000000
C	  11.2361000000	  21.4072000000	  45.2632000000
C	  13.7227000000	  27.1362000000	  46.5708000000
C	  10.2095000000	  20.1295000000	  46.9353000000
H	  10.7854000000	  24.0606000000	  46.6401000000
H	  12.3303000000	  23.1792000000	  46.9394000000
H	  13.3589000000	  24.7924000000	  45.1881000000
H	  11.9441000000	  25.6519000000	  45.0392000000
H	  12.4930000000	  22.7596000000	  44.3768000000
H	  10.9409000000	  23.2037000000	  44.1598000000
H	  12.2698000000	  26.0365000000	  47.7000000000
H	  13.9072000000	  25.2264000000	  47.5373000000
H	  12.0406000000	  20.8218000000	  45.7117000000
H	  10.8373000000	  20.9312000000	  44.3398000000
H	  14.6072000000	  27.0007000000	  45.9177000000
H	  13.0622000000	  27.7030000000	  45.9082000000
H	  14.0178000000	  27.8285000000	  47.3921000000
H	   9.2591200000	  20.1857000000	  47.4759000000
H	  10.2203000000	  19.2612000000	  46.2585000000
H	  11.0043000000	  20.0982000000	  47.6358000000
N	   9.3372200000	  22.3251000000	  50.6074000000
S	   9.8456700000	  23.2233000000	  49.3975000000
O	  11.2731000000	  23.2868000000	  49.3793000000
O	   9.0781200000	  23.0400000000	  48.2056000000
C	   9.4231900000	  24.8787000000	  50.0097000000
F	   8.1481800000	  25.1349000000	  50.0153000000
F	   9.8358600000	  25.8312000000	  49.1944000000
F	   9.8623700000	  25.1148000000	  51.2557000000
S	   8.4199900000	  21.0808000000	  50.6824000000
O	   9.2102900000	  20.0500000000	  51.3471000000
O	   7.6527800000	  20.6690000000	  49.5172000000
C	   7.1341000000	  21.6636000000	  51.9988000000
F	   6.2286000000	  20.7151000000	  52.2227000000
F	   7.8104400000	  21.8563000000	  53.1671000000
F	   6.5227800000	  22.7930000000	  51.6276000000
