57

Li	  52.4576000000	  23.7747000000	  47.6187000000
O	  50.5121000000	  23.2057000000	  47.8040000000
O	  49.3001000000	  21.3925000000	  47.6577000000
C	  49.2301000000	  23.6517000000	  47.3199000000
C	  48.3639000000	  22.4407000000	  47.3156000000
C	  50.2327000000	  22.0201000000	  48.4244000000
H	  48.7495000000	  24.3782000000	  47.9960000000
H	  49.2781000000	  24.2109000000	  46.3634000000
H	  47.7370000000	  22.5503000000	  48.1408000000
H	  47.8150000000	  22.2010000000	  46.4348000000
H	  51.1330000000	  21.4348000000	  48.4680000000
H	  49.8558000000	  22.0849000000	  49.4677000000
N	  52.2572000000	  24.9180000000	  51.0074000000
S	  52.8138000000	  23.8274000000	  51.9840000000
O	  52.0505000000	  22.6173000000	  51.9259000000
O	  54.2121000000	  23.7200000000	  52.1723000000
C	  52.1525000000	  24.5735000000	  53.5347000000
F	  50.8583000000	  24.3529000000	  53.6866000000
F	  52.3807000000	  25.8723000000	  53.6878000000
F	  52.7493000000	  24.0430000000	  54.5701000000
S	  52.9141000000	  25.7345000000	  49.8764000000
O	  52.2036000000	  25.4525000000	  48.6155000000
O	  54.3550000000	  25.6867000000	  49.9171000000
C	  52.5125000000	  27.4157000000	  50.4129000000
F	  52.6354000000	  28.3966000000	  49.4795000000
F	  51.1990000000	  27.5250000000	  50.7239000000
F	  53.1548000000	  27.7975000000	  51.4863000000
N	  55.7583000000	  21.9082000000	  47.6156000000
S	  54.8222000000	  21.8661000000	  48.8663000000
O	  55.5442000000	  22.1357000000	  50.0786000000
O	  53.5624000000	  22.5778000000	  48.6357000000
C	  54.3098000000	  20.0773000000	  48.9928000000
F	  53.5066000000	  19.8496000000	  50.0235000000
F	  55.3803000000	  19.3188000000	  49.1731000000
F	  53.7050000000	  19.5883000000	  47.9659000000
S	  57.1007000000	  22.6903000000	  47.3471000000
O	  58.2087000000	  22.0957000000	  48.0656000000
O	  56.9205000000	  24.0971000000	  47.3108000000
C	  57.5178000000	  22.2165000000	  45.6471000000
F	  56.6745000000	  22.7040000000	  44.7851000000
F	  58.6312000000	  22.8224000000	  45.2663000000
F	  57.8154000000	  20.9827000000	  45.3463000000
N	  51.6715000000	  24.1066000000	  43.8216000000
S	  52.1078000000	  22.9104000000	  44.7566000000
O	  52.9328000000	  23.2403000000	  45.8782000000
O	  51.0246000000	  22.0098000000	  45.0215000000
C	  53.2561000000	  21.9572000000	  43.6109000000
F	  53.9401000000	  20.9458000000	  44.2039000000
F	  54.1792000000	  22.7615000000	  43.0370000000
F	  52.6265000000	  21.3939000000	  42.6608000000
S	  52.0229000000	  25.6404000000	  44.0472000000
O	  53.0945000000	  26.1702000000	  43.1779000000
O	  52.0906000000	  25.9814000000	  45.4816000000
C	  50.4775000000	  26.4137000000	  43.4434000000
F	  50.4484000000	  27.7033000000	  43.6369000000
F	  50.2345000000	  26.1647000000	  42.1739000000
F	  49.4959000000	  25.7787000000	  44.1384000000
