41

Li	   9.6463100000	  14.2266000000	  28.6064000000
O	  10.6285000000	  15.7295000000	  27.2944000000
C	  11.6304000000	  14.7989000000	  23.8663000000
C	  12.1602000000	  13.6922000000	  23.1003000000
C	  11.5519000000	  14.5040000000	  25.3987000000
C	  11.7186000000	  13.8418000000	  21.6265000000
C	  10.6124000000	  15.5711000000	  25.9463000000
C	  12.7441000000	  13.3353000000	  20.6065000000
C	  11.7688000000	  16.0760000000	  28.0088000000
H	  10.6334000000	  14.9086000000	  23.5351000000
H	  12.1303000000	  15.8057000000	  23.8225000000
H	  13.2326000000	  13.5695000000	  23.2186000000
H	  11.7296000000	  12.7097000000	  23.3835000000
H	  12.5580000000	  14.5855000000	  25.8401000000
H	  11.0761000000	  13.5936000000	  25.5957000000
H	  10.7986000000	  13.2116000000	  21.5180000000
H	  11.3718000000	  14.7855000000	  21.2575000000
H	   9.6124500000	  15.3688000000	  25.6383000000
H	  10.8009000000	  16.5202000000	  25.5052000000
H	  13.6275000000	  13.9856000000	  20.5613000000
H	  13.0015000000	  12.3054000000	  20.8206000000
H	  12.2959000000	  13.4553000000	  19.6400000000
H	  11.5431000000	  15.9391000000	  29.0507000000
H	  12.5919000000	  15.4385000000	  27.7919000000
H	  12.1663000000	  17.1248000000	  27.8604000000
S	   8.3678200000	  15.5170000000	  29.9853000000
S	   8.2660000000	  17.2062000000	  28.7098000000
S	   6.2686900000	  17.6692000000	  28.5739000000
S	   2.2517600000	  19.7216000000	  29.1746000000
S	   1.1999100000	  21.4259000000	  29.7839000000
S	  -0.0983960364	  20.9221000000	  31.3603000000
S	   4.0738700000	  19.4742000000	  30.3423000000
S	   5.8593300000	  19.6244000000	  29.2866000000
S	   3.5970700000	   9.1154100000	  23.6458000000
S	   3.4257300000	  11.2730000000	  23.4771000000
S	   4.1621300000	  12.2178000000	  25.2446000000
S	   8.4892800000	  12.7471000000	  27.0460000000
S	   8.8881300000	  12.1473000000	  28.9899000000
S	  10.7622000000	  12.6420000000	  29.7295000000
S	   6.6568800000	  13.7052000000	  27.0083000000
S	   5.7507700000	  13.6815000000	  25.0839000000
