53

Li	  10.8447000000	  12.9705000000	  56.6950000000
O	  12.6887000000	  12.2129000000	  56.7107000000
O	  14.7725000000	  12.1078000000	  57.5113000000
C	  13.0957000000	  10.8681000000	  56.6332000000
C	  14.3013000000	  10.7251000000	  57.6101000000
C	  13.9493000000	  12.8360000000	  56.6920000000
H	  12.2203000000	  10.3060000000	  56.9529000000
H	  13.3519000000	  10.4286000000	  55.6577000000
H	  13.9595000000	  10.6116000000	  58.6429000000
H	  15.0476000000	  10.0337000000	  57.3483000000
H	  14.2597000000	  12.8451000000	  55.6323000000
H	  13.9659000000	  13.8618000000	  57.0549000000
O	  10.8410000000	  12.9226000000	  60.6726597015
O	  10.2683000000	  13.1438000000	  58.4653000000
C	   9.4010300000	  12.9015000000	  60.6551197015
C	   9.1090500000	  13.3844000000	  59.1866597015
C	  11.2078000000	  13.4806000000	  59.3895197015
H	   9.0349800000	  11.8883000000	  60.8767797015
H	   8.8752000000	  13.4850000000	  61.3694697015
H	   8.1714400000	  13.0185000000	  58.8472000000
H	   8.9083800000	  14.4971000000	  59.1512797015
H	  11.2805000000	  14.6070000000	  59.3765797015
H	  12.1842000000	  13.0216000000	  59.0648837015
N	   9.8621800000	  11.9108000000	  53.0040000000
S	  10.7752000000	  13.1880000000	  53.0116000000
O	  10.2374000000	  14.2950000000	  52.2796000000
O	  11.4004000000	  13.5695000000	  54.2851000000
C	  12.1490000000	  12.5703000000	  51.9783000000
F	  13.1084000000	  13.4587000000	  51.9172000000
F	  11.8343000000	  12.2797000000	  50.7140000000
F	  12.7110000000	  11.4859000000	  52.3800000000
S	   9.3903900000	  11.1170000000	  54.2826000000
O	   7.9691900000	  10.9284000000	  54.5310000000
O	  10.0353000000	  11.4362000000	  55.5217000000
C	  10.0330000000	   9.4784600000	  53.9410000000
F	   9.4829700000	   9.0089100000	  52.8480000000
F	  11.3335000000	   9.4203500000	  53.8427000000
F	   9.7537500000	   8.5990500000	  54.8902000000
N	   8.4823100000	  14.8939000000	  56.3834000000
S	   7.3473900000	  14.5954000000	  55.4255000000
O	   7.5180900000	  15.1025000000	  54.0761000000
O	   6.8817900000	  13.2197000000	  55.5885000000
C	   5.9184000000	  15.5431000000	  56.1361000000
F	   6.0848000000	  16.8475000000	  56.0135000000
F	   5.7787900000	  15.4290000000	  57.4075000000
F	   4.7613000000	  15.2387000000	  55.5828000000
S	   9.7682200000	  15.6183000000	  56.1128000000
O	   9.9394700000	  16.2283000000	  54.8367000000
O	  10.9521000000	  14.9758000000	  56.6203000000
C	   9.4515500000	  17.0994000000	  57.2204000000
F	  10.4849000000	  17.8762000000	  57.2656000000
F	   8.4609800000	  17.8713000000	  56.7125000000
F	   9.1530000000	  16.6983000000	  58.4711000000
