25

Li	  23.4345000000	  16.7731000000	  44.8583000000
S	  23.8844000000	  17.1479000000	  42.7081000000
S	  24.3417000000	  15.6988000000	  41.2557000000
S	  22.8302000000	  14.3782000000	  40.7707000000
S	  23.7610000000	  11.6720000000	  36.2294000000
S	  25.6276000000	  10.6738000000	  35.9824000000
S	  25.4197000000	   8.6094500000	  35.8576000000
S	  23.2335000000	  12.0548000000	  38.2330000000
S	  22.5734000000	  13.9776000000	  38.6649000000
S	  25.4121000000	  28.1403000000	  45.8743000000
S	  23.7308000000	  26.8733000000	  45.9270000000
S	  23.6049000000	  26.0813000000	  47.8073000000
S	  23.3605000000	  21.5172000000	  45.9453000000
S	  24.8180000000	  20.0502000000	  45.7736000000
S	  23.9914000000	  18.2516000000	  46.4396000000
S	  23.1241000000	  22.4990000000	  47.8300000000
S	  24.5044000000	  24.1790000000	  47.9579000000
S	  21.2900000000	  16.4999000000	  44.9025000000
S	  22.2689000000	  14.9040000000	  45.9826000000
S	  23.7225000000	  14.0040000000	  44.7517000000
S	  27.7688000000	  15.1607000000	  42.6606000000
S	  29.7136000000	  14.4088000000	  43.1184000000
S	  30.7441000000	  13.7675000000	  41.4470000000
S	  26.7772000000	  15.8588000000	  44.3901000000
S	  25.7715000000	  14.2928000000	  45.4015000000
