32

Li	  58.3807000000	  15.1606000000	  30.6211000000
N	  54.2433000000	  15.8209000000	  31.7849000000
S	  53.2926000000	  15.9969000000	  33.0503000000
O	  52.1623000000	  15.1028000000	  33.0681000000
O	  53.9234000000	  16.3290000000	  34.2773000000
C	  52.5973000000	  17.5686000000	  32.6037000000
F	  51.8723000000	  17.9850000000	  33.5818000000
F	  51.7399000000	  17.4174000000	  31.5893000000
F	  53.5271000000	  18.5154000000	  32.4481000000
S	  55.3234000000	  14.7027000000	  31.3646000000
O	  55.5774000000	  13.6573000000	  32.3624000000
O	  56.3726000000	  15.3004000000	  30.6168000000
C	  54.3762000000	  13.7574000000	  30.1120000000
F	  55.1655000000	  12.8555000000	  29.6203000000
F	  53.4111000000	  13.0850000000	  30.6903000000
F	  53.9066000000	  14.4216000000	  29.0940000000
S	  58.6279000000	  13.2078000000	  31.1917000000
S	  59.8362860364	  14.6361000000	  32.2276000000
S	  58.5141000000	  15.6095000000	  33.4582000000
S	  56.9665000000	  19.3341000000	  35.8473000000
S	  57.2014000000	  21.4031000000	  35.5440000000
S	  57.2675000000	  22.5214000000	  37.3242000000
S	  56.4293000000	  18.3204000000	  34.0891000000
S	  58.0802000000	  17.6088000000	  32.9411000000
S	  58.5761000000	  16.7076000000	  29.1719000000
S	  59.1945660364	  15.6232000000	  27.5179000000
S	  57.7335000000	  14.1993000000	  26.9562000000
S	  58.7035000000	   9.0593500000	  26.4256000000
S	  60.6518660364	   8.1350000000	  26.4925000000
S	  61.5039360364	   8.0398900000	  28.4519000000
S	  58.8490000000	  11.0459000000	  25.8027000000
S	  58.4248000000	  12.2536000000	  27.4493000000
