71

Li	  35.1066000000	  23.3729000000	  42.6531000000
O	  36.4612000000	  22.0521000000	  42.7904000000
O	  36.9291000000	  21.6992000000	  44.8370000000
C	  36.6393000000	  20.6981000000	  42.8165000000
C	  37.0408000000	  20.3951000000	  44.2109000000
C	  37.1400000000	  22.5682000000	  43.8352000000
H	  35.7455000000	  20.1375000000	  42.5197000000
H	  37.5368000000	  20.5585000000	  42.2464000000
H	  36.2651000000	  19.6534000000	  44.5833000000
H	  38.0274000000	  19.9611000000	  44.3280000000
H	  38.1824000000	  22.7265000000	  43.6721000000
H	  36.7478000000	  23.4965000000	  44.2601000000
O	  34.9360000000	  25.0180000000	  43.8689000000
O	  33.8785000000	  26.9361000000	  43.9198000000
C	  35.9236000000	  25.9752000000	  44.0533000000
C	  35.2058000000	  27.2740000000	  43.6073000000
C	  33.8585000000	  25.6314000000	  44.4030000000
H	  36.2274000000	  26.1740000000	  45.0892000000
H	  36.7118000000	  25.7596000000	  43.3749000000
H	  35.5641000000	  28.1081000000	  44.2318000000
H	  35.3437000000	  27.6724000000	  42.6225000000
H	  32.9172000000	  25.2011000000	  44.1547000000
H	  33.9342000000	  25.6406000000	  45.4930000000
O	  33.4361000000	  22.5991000000	  43.4685000000
C	  30.8816000000	  21.4846000000	  41.0625000000
C	  29.3888000000	  21.5596000000	  40.9771000000
C	  31.4569000000	  22.0132000000	  42.3633000000
C	  28.6976000000	  20.7645000000	  39.8401000000
C	  32.9283000000	  21.7059000000	  42.4994000000
C	  27.2355000000	  20.4546000000	  40.0464000000
C	  33.5014000000	  21.8813000000	  44.6553000000
H	  31.3371000000	  21.9156000000	  40.1486000000
H	  31.1323000000	  20.4818000000	  40.9155000000
H	  29.0016000000	  21.2968000000	  41.9676000000
H	  29.3105000000	  22.6235000000	  40.7879000000
H	  30.8607000000	  21.5642000000	  43.1684000000
H	  31.3669000000	  23.1289000000	  42.3664000000
H	  28.9160000000	  21.2258000000	  38.9252000000
H	  29.1854000000	  19.8370000000	  39.6080000000
H	  33.3585000000	  21.8503000000	  41.4603000000
H	  33.0442000000	  20.6725000000	  42.6995000000
H	  26.7224000000	  21.2595000000	  40.5716000000
H	  26.6451000000	  20.3280000000	  39.1751000000
H	  27.1303000000	  19.6070000000	  40.6368000000
H	  34.3071000000	  21.1042000000	  44.6109000000
H	  33.8313000000	  22.5507000000	  45.4791000000
H	  32.5793000000	  21.6013000000	  45.0010000000
O	  35.2430000000	  23.9354000000	  40.8786000000
C	  37.6934000000	  22.6483000000	  39.6103000000
C	  39.0434000000	  22.0625000000	  39.5179000000
C	  37.6640000000	  24.0133000000	  40.3444000000
C	  38.9742000000	  20.5628000000	  39.3848000000
C	  36.2823000000	  24.7234000000	  40.2920000000
C	  40.4214000000	  19.9386000000	  39.2761000000
C	  34.0125000000	  24.4112000000	  40.4759000000
H	  37.0927000000	  21.7832000000	  40.0854000000
H	  37.3363000000	  22.6994000000	  38.5559000000
H	  39.5304000000	  22.4699000000	  38.6640000000
H	  39.6091000000	  22.3226000000	  40.3921000000
H	  38.3403000000	  24.6811000000	  39.9024000000
H	  37.8917000000	  23.9295000000	  41.4320000000
H	  38.5521000000	  20.0220000000	  40.1841000000
H	  38.2837000000	  20.4070000000	  38.5895000000
H	  36.1527000000	  25.0180000000	  39.2283000000
H	  36.3634000000	  25.6529000000	  40.8160000000
H	  41.0264000000	  20.1046000000	  38.3589000000
H	  41.0212000000	  20.2652000000	  40.1420000000
H	  40.3655000000	  18.8515000000	  39.3040000000
H	  33.9064000000	  25.4581000000	  40.5885000000
H	  34.0120000000	  24.1796000000	  39.4479000000
H	  33.1365000000	  23.9673000000	  40.9206000000
