79

Li	  43.5619000000	  12.8024000000	  17.0397000000
O	  44.6349000000	  14.2541000000	  17.2530000000
C	  45.6711000000	  16.1681000000	  15.0736000000
C	  46.5473000000	  17.0439000000	  14.2200000000
C	  45.4264000000	  16.6203000000	  16.5154000000
C	  47.9388000000	  17.3469000000	  14.8728000000
C	  44.4356000000	  15.6980000000	  17.2513000000
C	  48.7554000000	  18.3999000000	  14.0105000000
C	  45.8830000000	  13.9547000000	  17.9373000000
H	  46.2032000000	  15.1959000000	  15.1127000000
H	  44.7371000000	  15.9338000000	  14.5707000000
H	  46.7300000000	  16.4951000000	  13.2514000000
H	  45.8769000000	  17.9683000000	  14.0434000000
H	  44.9550000000	  17.6135000000	  16.4302000000
H	  46.3901000000	  16.5372000000	  17.0221000000
H	  47.8315000000	  17.6618000000	  15.8888000000
H	  48.5779000000	  16.4316000000	  14.9789000000
H	  43.5140000000	  15.8318000000	  16.7741000000
H	  44.3426000000	  15.9981000000	  18.3183000000
H	  48.2843000000	  19.3436000000	  14.1110000000
H	  49.8280000000	  18.4033000000	  14.3087000000
H	  48.7406000000	  18.0449000000	  12.9503000000
H	  45.8553000000	  13.3349000000	  18.8157000000
H	  46.6023000000	  13.6845000000	  17.2434000000
H	  46.3356000000	  14.8514000000	  18.4530000000
O	  42.2613000000	  12.2309000000	  18.2463000000
C	  41.2582000000	   9.5128700000	  20.5813000000
C	  41.9962000000	   8.9466900000	  21.7676000000
C	  41.8244000000	  10.8738000000	  20.1347000000
C	  41.7156000000	   7.4362000000	  21.7070000000
C	  41.4853000000	  11.1220000000	  18.6790000000
C	  42.5052000000	   6.5615300000	  22.7569000000
C	  41.7353000000	  13.4489000000	  18.6776000000
H	  40.1596000000	   9.4744800000	  20.7361000000
H	  41.3608000000	   8.8784200000	  19.6173000000
H	  43.0797000000	   9.1259100000	  21.6177000000
H	  41.6795000000	   9.3074900000	  22.7262000000
H	  42.8447000000	  10.9119000000	  20.4111000000
H	  41.3758000000	  11.6420000000	  20.8514000000
H	  40.7103000000	   7.2661200000	  21.8543000000
H	  41.9324000000	   7.0086000000	  20.7193000000
H	  40.3971000000	  11.2664000000	  18.3691000000
H	  41.7565000000	  10.2738000000	  18.0988000000
H	  42.1785000000	   5.5021500000	  22.7838000000
H	  43.5914000000	   6.5417400000	  22.7391000000
H	  42.3376000000	   6.9081500000	  23.7452000000
H	  42.6636000000	  14.0759000000	  18.6722000000
H	  41.0351000000	  13.7896000000	  17.9192000000
H	  41.2927000000	  13.5624000000	  19.6802000000
N	  46.7980000000	  10.0224000000	  17.1664000000
S	  45.4849000000	  10.1225000000	  16.2830000000
O	  45.0197000000	   8.8390700000	  15.6945000000
O	  44.5470000000	  11.1999000000	  16.5927000000
C	  46.1909000000	  10.8684000000	  14.7866000000
F	  45.2430000000	  11.2919000000	  13.9543000000
F	  46.9282000000	  10.0025000000	  14.0879000000
F	  46.8767000000	  11.9331000000	  15.1074000000
S	  47.0092000000	   9.1344800000	  18.4144000000
O	  48.3658000000	   8.8668400000	  18.9207000000
O	  46.0557000000	   8.0679900000	  18.5266000000
C	  46.3114000000	  10.3248000000	  19.6820000000
F	  45.0357000000	  10.4972000000	  19.4883000000
F	  46.5420000000	   9.8131400000	  20.8541000000
F	  46.8917000000	  11.4378000000	  19.5413000000
N	  41.4995000000	  12.8457000000	  12.9725000000
S	  42.2758000000	  13.8725000000	  13.8857000000
O	  42.7341000000	  13.2168000000	  15.1303000000
O	  43.0884000000	  14.7039000000	  13.1628000000
C	  40.8859000000	  14.9081000000	  14.6096000000
F	  39.8256000000	  14.1614000000	  14.9186000000
F	  40.3873000000	  15.8181000000	  13.7624000000
F	  41.3877000000	  15.4672000000	  15.7182000000
S	  41.8589000000	  12.3330000000	  11.5603000000
O	  41.4044000000	  10.9752000000	  11.2998000000
O	  43.1811000000	  12.6170000000	  11.0214000000
C	  40.7359000000	  13.3365000000	  10.5380000000
F	  39.4927000000	  13.2060000000	  10.9759000000
F	  40.9868000000	  14.6487000000	  10.5315000000
F	  40.6748000000	  12.8857000000	   9.2958100000
