53

Li	  49.8908000000	  18.7873000000	  57.2792000000
O	  52.0208000000	  18.8746000000	  60.7591697015
O	  51.0431000000	  18.5058000000	  58.6880000000
C	  53.0626000000	  18.8040000000	  59.8175297015
C	  52.3807000000	  17.9611000000	  58.7133000000
C	  50.8955000000	  19.0414000000	  59.9932097015
H	  53.3623000000	  19.7655000000	  59.4239897015
H	  53.9950000000	  18.2586000000	  60.1813097015
H	  52.7369000000	  17.9418000000	  57.6873000000
H	  52.4428000000	  16.9229000000	  59.0211000000
H	  50.0748000000	  18.6423000000	  60.4631697015
H	  50.7945000000	  20.0869000000	  60.0067297015
O	  46.3620000000	  17.9928000000	  59.3050897015
O	  48.3147000000	  18.1534000000	  58.1537000000
C	  46.7982000000	  16.7071000000	  59.2656097015
C	  48.2920000000	  16.8509000000	  58.7878000000
C	  46.9875000000	  18.6378000000	  58.2455000000
H	  46.8561000000	  16.4084000000	  60.2957297015
H	  46.1350000000	  16.0995000000	  58.7140000000
H	  49.0539000000	  16.7646000000	  59.6037797015
H	  48.6628000000	  16.1229000000	  58.0681000000
H	  46.4300000000	  18.4687000000	  57.3446000000
H	  47.0146000000	  19.6969000000	  58.4038000000
N	  50.5753000000	  22.1955000000	  56.1424000000
S	  49.8708000000	  22.2273000000	  57.5134000000
O	  49.4092000000	  20.9441000000	  57.9168000000
O	  50.4477000000	  23.0598000000	  58.4842000000
C	  48.3529000000	  23.1677000000	  57.0113000000
F	  47.3658000000	  22.3410000000	  56.5460000000
F	  48.6693000000	  23.9901000000	  55.9963000000
F	  47.8452000000	  23.9043000000	  57.9696000000
S	  51.4163000000	  21.0208000000	  55.4985000000
O	  51.0624000000	  20.9425000000	  54.1057000000
O	  51.5839000000	  19.8381000000	  56.2886000000
C	  53.0858000000	  21.7466000000	  55.5275000000
F	  53.4182000000	  21.8971000000	  56.7752000000
F	  54.0288000000	  20.9756000000	  54.9761000000
F	  53.1077000000	  22.9066000000	  54.9411000000
N	  49.4712000000	  17.3613000000	  53.9251000000
S	  48.6879000000	  18.7217000000	  54.0411000000
O	  48.7018000000	  19.2452000000	  55.3766000000
O	  48.8374000000	  19.6160000000	  52.9257000000
C	  46.9558000000	  18.1200000000	  53.9621000000
F	  46.2064000000	  19.2152000000	  54.3556000000
F	  46.7321000000	  17.1594000000	  54.7370000000
F	  46.5865000000	  17.8080000000	  52.7002000000
S	  50.6590000000	  17.0224000000	  54.9083000000
O	  50.3063000000	  17.0599000000	  56.2768000000
O	  51.8872000000	  17.6391000000	  54.4486000000
C	  50.9727000000	  15.2876000000	  54.5411000000
F	  49.8942000000	  14.6215000000	  54.8612000000
F	  51.1532000000	  15.1163000000	  53.2861000000
F	  52.0386000000	  14.8653000000	  55.2369000000
