28

Li	  25.9250000000	  17.5494000000	  51.9930000000
O	  24.5007000000	  15.6930000000	  48.8928000000
O	  25.6524000000	  17.0960000000	  50.1019000000
C	  25.6810000000	  16.0379000000	  48.1272000000
C	  26.3630000000	  17.1202000000	  48.9075000000
C	  24.3764000000	  16.7538000000	  49.8187000000
H	  26.3451000000	  15.2752000000	  47.9177000000
H	  25.2874000000	  16.6068000000	  47.2508000000
H	  27.3910000000	  16.8442000000	  49.2435000000
H	  26.3889000000	  18.0715000000	  48.3357000000
H	  23.7833000000	  17.5386000000	  49.4096000000
H	  23.7800000000	  16.5152000000	  50.7732000000
S	  26.2614000000	  21.6455000000	  55.7814000000
S	  28.3047000000	  21.5681000000	  56.2848000000
S	  29.2734000000	  19.8593000000	  55.5083000000
S	  27.7714000000	  15.5556000000	  55.3526000000
S	  27.1504000000	  16.1859000000	  53.4708000000
S	  25.0055000000	  16.3884000000	  53.4264000000
S	  29.6531000000	  16.4539000000	  55.6409000000
S	  29.2843000000	  18.1916000000	  56.7657000000
S	  25.2308000000	  19.4974000000	  51.6484000000
S	  27.2508000000	  19.8978000000	  52.2887000000
S	  28.6534000000	  18.8347000000	  51.1784000000
S	  29.6594000000	  18.1834000000	  46.2434000000
S	  28.7099000000	  16.3056000000	  45.7451000000
S	  29.4391000000	  14.7293000000	  47.0641000000
S	  28.5357000000	  19.3365000000	  47.6081000000
S	  29.4598000000	  19.8416000000	  49.5034000000
