39

Li	  45.4242000000	  24.5584000000	  23.7446000000
N	  43.3397000000	  24.0953000000	  20.3011000000
S	  44.0006000000	  22.6344000000	  20.5004000000
O	  44.1873000000	  21.9253000000	  19.2572000000
O	  45.0375000000	  22.5720000000	  21.4607000000
C	  42.5889000000	  21.7693000000	  21.3944000000
F	  42.2007000000	  22.4527000000	  22.4825000000
F	  42.8808000000	  20.6393000000	  21.8724000000
F	  41.5481000000	  21.5195000000	  20.6386000000
S	  43.8967000000	  25.4053000000	  20.9411000000
O	  44.2287000000	  26.4181000000	  19.9527000000
O	  44.7235000000	  25.2381000000	  22.0958000000
C	  42.2681000000	  25.9586000000	  21.5893000000
F	  41.8104000000	  25.1525000000	  22.6246000000
F	  42.2930000000	  27.1589000000	  22.2058000000
F	  41.3123000000	  26.0598000000	  20.6783000000
N	  43.9638000000	  24.7362000000	  26.6957000000
S	  44.3581000000	  23.3040000000	  26.2714000000
O	  44.5921000000	  23.1949000000	  24.8713000000
O	  45.3395000000	  22.7487000000	  27.1275000000
C	  42.8409000000	  22.3183000000	  26.5114000000
F	  43.0699000000	  21.0005000000	  26.4591000000
F	  41.9194000000	  22.5388000000	  25.5672000000
F	  42.2435000000	  22.4949000000	  27.6736000000
S	  43.9788000000	  26.1292000000	  25.9775000000
O	  44.3792000000	  26.0864000000	  24.5851000000
O	  44.5121000000	  27.1802000000	  26.8465000000
C	  42.2328000000	  26.5504000000	  25.8838000000
F	  41.5784000000	  25.5952000000	  25.2084000000
F	  41.6712000000	  26.5661000000	  27.1375000000
F	  42.0152000000	  27.7156000000	  25.2909000000
S	  52.8582000000	  33.1968000000	  25.0521000000
S	  51.3094000000	  32.2814000000	  26.2042000000
S	  49.8146000000	  31.5327000000	  24.9980000000
S	  47.2574000000	  27.1874000000	  25.3343000000
S	  47.6332000000	  25.0619000000	  25.1320000000
S	  47.2909000000	  24.0467000000	  23.2303000000
S	  49.1241000000	  28.0660000000	  26.1343000000
S	  49.9752000000	  29.4465000000	  24.6802000000
