52

Li	  10.8930000000	  18.3662000000	  30.2024000000
O	  11.9172000000	  19.8061000000	  31.3970000000
O	  13.7197000000	  19.8577000000	  32.7016000000
C	  12.6284000000	  20.9529000000	  30.8712000000
C	  13.9349000000	  20.8982000000	  31.7330000000
C	  12.3914000000	  19.4924000000	  32.6353000000
H	  12.8083000000	  20.9371000000	  29.7727000000
H	  11.9896000000	  21.8530000000	  31.0363000000
H	  14.7998000000	  20.6682000000	  31.1622000000
H	  14.1439000000	  21.7495000000	  32.3842000000
H	  11.7943000000	  19.9985000000	  33.3469000000
H	  12.2555000000	  18.3837000000	  32.9061000000
O	  11.9227000000	  18.6217000000	  28.7579000000
C	  11.8428000000	  20.1992000000	  25.4112000000
C	  12.3380000000	  21.5677000000	  24.9241000000
C	  11.5416000000	  20.2421000000	  26.9081000000
C	  12.9710000000	  21.5004000000	  23.5040000000
C	  11.4292000000	  18.8357000000	  27.4780000000
C	  13.4158000000	  22.8787000000	  22.9028000000
C	  13.2460000000	  18.0947000000	  28.7100000000
H	  12.6516000000	  19.4996000000	  25.1911000000
H	  10.9505000000	  19.7686000000	  24.8248000000
H	  11.4665000000	  22.2170000000	  25.0458000000
H	  13.1358000000	  21.9049000000	  25.6149000000
H	  10.5463000000	  20.7228000000	  27.1976000000
H	  12.3190000000	  20.7211000000	  27.4597000000
H	  13.9096000000	  20.8708000000	  23.6544000000
H	  12.4149000000	  20.8632000000	  22.8021000000
H	  11.6586000000	  18.1764000000	  26.6846000000
H	  10.3773000000	  18.5223000000	  27.5602000000
H	  14.0818000000	  23.3851000000	  23.5406000000
H	  13.9768000000	  22.7479000000	  21.9771000000
H	  12.6273000000	  23.5419000000	  22.7153000000
H	  13.9510000000	  18.7698000000	  28.1128000000
H	  13.6124000000	  18.1236000000	  29.7292000000
H	  13.2525000000	  17.0872000000	  28.3438000000
S	   8.9877100000	  19.6444000000	  30.0139000000
S	   9.1952300000	  21.7968000000	  29.7257000000
S	   7.9291800000	  22.6000000000	  28.2999000000
S	   3.3909800000	  23.0382000000	  28.5665000000
S	   1.9833700000	  23.9791000000	  29.8357000000
S	   1.6532900000	  22.8893000000	  31.6183000000
S	   4.8098400000	  24.3428000000	  27.8572000000
S	   6.6470800000	  24.1690000000	  28.9776000000
S	   4.1810100000	   8.3819900000	  26.1654000000
S	   4.0907700000	  10.4337000000	  26.7027000000
S	   5.8397200000	  11.5571000000	  26.3397000000
S	   7.7089800000	  14.7720000000	  30.2283000000
S	   9.4450200000	  15.7790000000	  29.5116000000
S	  10.8665000000	  16.3419000000	  30.9480000000
S	   7.3935200000	  12.8227000000	  29.3872000000
S	   6.0513400000	  13.0329000000	  27.7779000000
