46

Li	   1.6177600000	  46.8602000000	  36.9220000000
N	   2.7533000000	  45.4382000000	  39.9473000000
S	   3.8254400000	  45.7987000000	  38.8290000000
O	   4.5672700000	  44.7053000000	  38.2407000000
O	   3.4423200000	  46.8488000000	  37.9062000000
C	   5.1423200000	  46.6364000000	  39.7058000000
F	   4.8980500000	  47.8553000000	  40.1351000000
F	   6.2542500000	  46.6597000000	  38.9869000000
F	   5.4402300000	  46.0099000000	  40.8025000000
S	   1.2479200000	  45.5822000000	  39.8996000000
O	   0.5935039636	  44.3466000000	  40.3614000000
O	   0.6753039636	  46.1632000000	  38.7128000000
C	   0.9795180000	  46.7289000000	  41.2807000000
F	   1.2753400000	  46.2335000000	  42.4222000000
F	   1.8152800000	  47.7742000000	  41.2365000000
F	  -0.2442960364	  47.2149000000	  41.3434000000
N	  -0.1812960364	  44.2588000000	  34.8714000000
S	  -0.6573960364	  45.6747000000	  34.5002000000
O	   0.2323039636	  46.7607000000	  34.8135000000
O	  -1.3423960364	  45.6697000000	  33.2036000000
C	  -2.0526960364	  46.0004000000	  35.6800000000
F	  -1.6734960364	  45.8450000000	  36.9625000000
F	  -3.1117960364	  45.1433000000	  35.4024000000
F	  -2.5034960364	  47.2273000000	  35.6321000000
S	   1.1252100000	  43.8165000000	  35.6594000000
O	   1.8116600000	  44.8370000000	  36.3895000000
O	   1.9252400000	  42.8868000000	  34.8798000000
C	   0.3248039636	  42.6855000000	  36.8168000000
F	  -0.6781960364	  43.3059000000	  37.4763000000
F	  -0.2480960364	  41.7146000000	  36.1954000000
F	   1.1629700000	  42.0932000000	  37.6389000000
N	   0.1066039636	  50.5338000000	  35.8276000000
S	   0.4904039636	  49.8332000000	  37.1624000000
O	  -0.5845960364	  49.8879000000	  38.1509000000
O	   1.1522300000	  48.5592000000	  36.8722000000
C	   1.8177700000	  50.8655000000	  37.8771000000
F	   2.2079200000	  50.4575000000	  39.0687000000
F	   1.4971700000	  52.1440000000	  37.9158000000
F	   2.9717600000	  50.8560000000	  37.2330000000
S	   0.3655039636	  50.1537000000	  34.3262000000
O	  -0.8743960364	  49.8201000000	  33.6715000000
O	   1.5670500000	  49.3896000000	  34.0625000000
C	   0.6949039636	  51.7727000000	  33.6278000000
F	   1.2080500000	  51.7262000000	  32.4043000000
F	  -0.4744960364	  52.3730000000	  33.4235000000
F	   1.3962500000	  52.5411000000	  34.4042000000
