48

Li	  57.2295000000	  24.3368000000	  15.3600000000
O	  58.2997000000	  23.5535000000	  16.8954000000
C	  57.6187000000	  21.8975000000	  20.2451000000
C	  57.8588000000	  22.2790000000	  21.7211000000
C	  58.0958000000	  22.9896000000	  19.2809000000
C	  56.8828000000	  23.3895000000	  22.2734000000
C	  58.3827000000	  22.5292000000	  17.8461000000
C	  57.0073000000	  23.6355000000	  23.7062000000
C	  59.1124630364	  24.7071000000	  17.1656000000
H	  56.5538000000	  21.8008000000	  19.9338000000
H	  58.1235000000	  20.9492000000	  20.0118000000
H	  57.8617000000	  21.3515000000	  22.1952000000
H	  58.9348000000	  22.5333000000	  21.7623000000
H	  59.0466000000	  23.3091000000	  19.6960000000
H	  57.3515000000	  23.7967000000	  19.3992000000
H	  56.9486000000	  24.3550000000	  21.7579000000
H	  55.8510000000	  23.0765000000	  22.1283000000
H	  57.5912000000	  21.8596000000	  17.5020000000
H	  59.3425760364	  22.0485000000	  17.7137000000
H	  58.0425000000	  23.4082000000	  24.0253000000
H	  56.7794000000	  24.6569000000	  23.9264000000
H	  56.3598000000	  23.0465000000	  24.3475000000
H	  58.6628000000	  25.3557000000	  17.9045000000
H	  60.0176660364	  24.3611000000	  17.4940000000
H	  59.0626000000	  25.3839000000	  16.3294000000
N	  57.1111000000	  27.0831000000	  13.3568000000
S	  57.9860000000	  25.9510000000	  12.8276000000
O	  58.2730000000	  24.9184000000	  13.8169000000
O	  57.6074000000	  25.5180000000	  11.4806000000
C	  59.5749960364	  26.8044000000	  12.4431000000
F	  59.3333460364	  27.9702000000	  11.8295000000
F	  60.2837960364	  26.0210000000	  11.5872000000
F	  60.3094260364	  27.1535000000	  13.4975000000
S	  56.5778000000	  27.3195000000	  14.7926000000
O	  57.0007000000	  28.5974000000	  15.3173000000
O	  56.6752000000	  26.1563000000	  15.6733000000
C	  54.7820000000	  27.4960000000	  14.4831000000
F	  54.1307000000	  27.6293000000	  15.6647000000
F	  54.5544000000	  28.5366000000	  13.7718000000
F	  54.3025000000	  26.4688000000	  13.8381000000
S	  49.4669000000	  21.3919000000	  23.5435000000
S	  49.7461000000	  20.0295000000	  21.9279000000
S	  51.6982000000	  20.0920000000	  21.1711000000
S	  54.3888000000	  22.0355000000	  17.9413000000
S	  54.6569000000	  21.7961000000	  15.8463000000
S	  55.5175000000	  23.4879000000	  14.8226000000
S	  52.3729000000	  22.3508000000	  18.4989000000
S	  51.6573000000	  20.4271000000	  19.1399000000
