38

Li	  31.7912000000	   7.0769600000	  26.9972000000
O	  33.1632000000	   7.3976200000	  30.5283000000
O	  31.7260000000	   7.6481900000	  28.7618000000
C	  32.3013000000	   6.1680500000	  30.4994000000
C	  31.2075000000	   6.5602600000	  29.4835000000
C	  32.5263000000	   8.2555600000	  29.6940000000
H	  32.8357000000	   5.2253400000	  30.2760000000
H	  31.7946000000	   6.0131300000	  31.4510000000
H	  30.9921000000	   5.7800100000	  28.7697000000
H	  30.2927000000	   6.8250900000	  29.9765000000
H	  31.9372000000	   8.8753900000	  30.3701000000
H	  33.2077000000	   9.0533600000	  29.3430000000
O	  27.8612000000	   8.6559300000	  26.2200000000
O	  29.9532000000	   7.7889100000	  26.7732000000
C	  28.6031000000	   9.7087300000	  26.8606000000
C	  29.7008000000	   8.8658100000	  27.5844000000
C	  28.8040000000	   7.6785400000	  25.8876000000
H	  29.0943000000	  10.2436000000	  26.1038000000
H	  28.0194000000	  10.3581000000	  27.4350000000
H	  30.6499000000	   9.4422700000	  27.6831000000
H	  29.4329000000	   8.5189000000	  28.5723000000
H	  28.4419000000	   6.6198500000	  25.7668000000
H	  29.2553000000	   7.9409400000	  24.9227000000
N	  35.4214000000	   6.6464400000	  26.0563000000
S	  34.6975000000	   7.9705700000	  25.6295000000
O	  34.6809000000	   8.2087500000	  24.2537000000
O	  33.4731000000	   8.2583900000	  26.3346000000
C	  35.9067000000	   9.1973400000	  26.1946000000
F	  35.9919000000	   9.2674000000	  27.4917000000
F	  35.5670000000	  10.3826000000	  25.7109000000
F	  37.1118000000	   8.8763300000	  25.6683000000
S	  34.9143000000	   5.4893000000	  26.9472000000
O	  35.4923000000	   4.2310300000	  26.6475000000
O	  33.5352000000	   5.5438300000	  27.4383000000
C	  35.8025000000	   5.9310200000	  28.4724000000
F	  35.7008000000	   4.9884200000	  29.3609000000
F	  37.0914000000	   5.9757800000	  28.2118000000
F	  35.3329000000	   7.0166600000	  28.8840000000
