62

Li	   3.0380800000	  21.1576000000	   1.6728800000
O	   6.2163300000	  19.5548000000	   0.5761102985
O	   4.0885300000	  19.6873000000	   1.0605700000
C	   6.1251500000	  18.9733000000	   1.8669900000
C	   4.6305800000	  18.8232000000	   2.0947500000
C	   4.9032200000	  19.4371000000	   0.0299102985
H	   6.6846900000	  18.0315000000	   1.7235800000
H	   6.5658100000	  19.6759000000	   2.5767400000
H	   4.2829000000	  17.7138000000	   2.0118900000
H	   4.3593900000	  19.0336000000	   3.1355500000
H	   4.7865700000	  20.0995000000	  -0.7983897015
H	   4.8644200000	  18.4903000000	  -0.3739897015
O	   5.1497400000	  22.2742000000	   5.0879200000
O	   3.7612700000	  22.0867000000	   3.3041200000
C	   4.7432900000	  23.5890000000	   4.7784200000
C	   3.7915400000	  23.4877000000	   3.5859200000
C	   4.1793300000	  21.5040000000	   4.5182800000
H	   4.2295700000	  23.9352000000	   5.6822900000
H	   5.5770400000	  24.2060000000	   4.4843700000
H	   2.7111300000	  23.7605000000	   3.7251600000
H	   4.1273400000	  24.1611000000	   2.8657600000
H	   4.6249200000	  20.5550000000	   4.4067000000
H	   3.2776700000	  21.4691000000	   5.0777100000
O	   1.6298300000	  19.8535000000	   1.8102000000
C	   0.8602039636	  18.8000000000	  -1.7529897015
C	   0.2985039636	  20.0608000000	  -2.4195897015
C	   1.5099100000	  19.1246000000	  -0.4159897015
C	  -0.0371960364	  20.0258000000	  -3.8133897015
C	   0.6991039636	  19.6460000000	   0.7378102985
C	  -1.2539960364	  19.1609000000	  -4.1612897015
C	   1.0158000000	  20.0804000000	   3.1030500000
H	   1.4919000000	  18.3458000000	  -2.5138897015
H	   0.0466039636	  18.0745000000	  -1.5970897015
H	  -0.5363960364	  20.4434000000	  -1.8820897015
H	   0.8694039636	  20.9365000000	  -2.3186897015
H	   2.3371700000	  19.6962000000	  -0.7266897015
H	   2.0016700000	  18.2370000000	  -0.0472897015
H	  -0.1927960364	  21.0016000000	  -4.1603897015
H	   0.8797039636	  19.6632000000	  -4.1446897015
H	  -0.0180960364	  18.8964000000	   1.0012900000
H	   0.1419039636	  20.5450000000	   0.4252102985
H	  -1.3523960364	  19.0764000000	  -5.2151897015
H	  -1.0347960364	  18.2301000000	  -3.7310897015
H	  -2.1479960364	  19.5031000000	  -3.8159897015
H	   1.7129600000	  20.1295000000	   3.9482700000
H	   0.3782039636	  20.9024000000	   3.0211800000
H	   0.4621039636	  19.2133000000	   3.3719000000
N	   2.5615800000	  24.4393000000	   0.1250102985
S	   3.9151900000	  23.7030000000	  -0.0020897015
O	   5.0197300000	  24.5108000000	   0.3766102985
O	   3.8968900000	  22.3080000000	   0.4266102985
C	   4.0814800000	  23.4125000000	  -1.7644897015
F	   5.1708900000	  22.6631000000	  -2.0037897015
F	   4.1614200000	  24.5213000000	  -2.4446897015
F	   3.0298900000	  22.8209000000	  -2.2315897015
S	   1.3475100000	  24.0236000000	   1.0388700000
O	   1.2095000000	  24.9432000000	   2.1641200000
O	   1.2845400000	  22.6302000000	   1.3224900000
C	  -0.0814960364	  24.4155000000	   0.0599102985
F	  -1.1905960364	  24.2419000000	   0.7389102985
F	  -0.1264960364	  25.6422000000	  -0.4124897015
F	  -0.2047960364	  23.6406000000	  -1.0598897015
