48

Li	   7.8079100000	  55.3100000000	  47.7994000000
O	   7.0536100000	  55.8282000000	  45.9898000000
C	   6.9792400000	  59.0966000000	  44.0689000000
C	   6.4463900000	  59.7273161978	  42.7654000000
C	   6.6983700000	  57.5700000000	  44.2214000000
C	   6.4219800000	  61.2954661978	  42.7297000000
C	   7.0857100000	  57.1865000000	  45.6767000000
C	   5.5618700000	  61.9401861978	  41.6713000000
C	   6.0601600000	  54.9671000000	  45.3678000000
H	   6.5487400000	  59.6319961978	  44.8787000000
H	   8.0740700000	  59.3568461978	  44.0757000000
H	   6.9800700000	  59.4069961978	  41.8883000000
H	   5.4307300000	  59.4237861978	  42.4934000000
H	   7.3750200000	  57.0110000000	  43.6045000000
H	   5.7197900000	  57.3179000000	  43.8734000000
H	   6.1123700000	  61.6439861978	  43.6853000000
H	   7.4460900000	  61.6485061978	  42.6550000000
H	   6.4696200000	  57.5797000000	  46.4876000000
H	   8.1398000000	  57.5019000000	  45.8600000000
H	   4.5454500000	  61.5874261978	  41.9770000000
H	   5.6569600000	  63.0199561978	  41.6603000000
H	   5.7434900000	  61.5702961978	  40.7066000000
H	   5.0597300000	  55.2966000000	  45.6103000000
H	   6.1572000000	  54.7856000000	  44.3080000000
H	   6.0643200000	  54.0532000000	  46.0046000000
N	   5.9741500000	  57.4930000000	  50.9760000000
S	   6.0835700000	  58.8371000000	  51.8269000000
O	   7.3486800000	  59.0372000000	  52.4994000000
O	   5.4986000000	  59.9916761978	  51.2015000000
C	   4.9152400000	  58.4871000000	  53.2290000000
F	   3.6535800000	  58.6435000000	  52.8739000000
F	   5.1958100000	  59.3667661978	  54.2478000000
F	   5.0458300000	  57.2777000000	  53.7293000000
S	   5.7860800000	  57.4008000000	  49.4531000000
O	   6.4773300000	  56.2041000000	  49.0320000000
O	   5.9409600000	  58.6275000000	  48.7067000000
C	   3.9985000000	  56.9764000000	  49.3690000000
F	   3.8232100000	  55.7950000000	  49.9191000000
F	   3.2849200000	  57.8698000000	  49.9861000000
F	   3.5563900000	  56.9832000000	  48.1220000000
S	  16.7178000000	  52.4133000000	  53.9800000000
S	  15.0451000000	  51.2053000000	  54.1480000000
S	  14.0266000000	  50.8756000000	  52.2395000000
S	   9.3445300000	  51.5436000000	  50.9616000000
S	   7.9846000000	  53.0714000000	  50.2546000000
S	   8.1716200000	  53.3377000000	  48.1685000000
S	  10.7630000000	  52.1576000000	  52.3386000000
S	  12.7381000000	  52.4044000000	  51.6802000000
