63

Li	  51.9609000000	  36.8395000000	   2.6082000000
O	  50.2339000000	  37.4867000000	   2.7018300000
C	  49.4923000000	  39.7663000000	   5.6446700000
C	  50.1247000000	  39.9166000000	   7.0687800000
C	  50.1808000000	  38.7016000000	   4.7765400000
C	  49.0223000000	  40.4348000000	   8.0408700000
C	  49.4386000000	  38.4042000000	   3.4703800000
C	  49.6181000000	  40.7004000000	   9.4182600000
C	  49.8126000000	  37.3151000000	   1.3998600000
H	  49.4101000000	  40.7278000000	   5.2141400000
H	  48.4552000000	  39.4771000000	   5.7578200000
H	  50.4541000000	  38.8928000000	   7.2708500000
H	  51.1237000000	  40.4412000000	   7.0575500000
H	  50.1647000000	  37.8131000000	   5.3406300000
H	  51.1653000000	  38.9777000000	   4.5350600000
H	  48.6836000000	  41.3445000000	   7.4789600000
H	  48.2621000000	  39.6406000000	   8.0553300000
H	  49.1683000000	  39.2941000000	   2.8604500000
H	  48.5699000000	  37.9711000000	   3.8642900000
H	  48.9170000000	  41.1736000000	  10.0881000000
H	  50.0614000000	  39.7653000000	   9.9614800000
H	  50.4223000000	  41.4654000000	   9.3673100000
H	  50.0394000000	  38.2892000000	   0.7973102985
H	  50.3723000000	  36.5245000000	   0.9292102985
H	  48.6857000000	  37.2033000000	   1.3609100000
N	  52.5539000000	  32.2414000000	   1.8764000000
S	  53.3769000000	  32.2929000000	   3.2047500000
O	  53.8299000000	  33.5617000000	   3.6386200000
O	  52.8472000000	  31.3942000000	   4.2535800000
C	  54.9647000000	  31.4064000000	   2.8137900000
F	  54.8782000000	  30.2596000000	   2.2169100000
F	  55.5612000000	  31.2518000000	   3.9414800000
F	  55.8167000000	  32.1706000000	   2.1388600000
S	  51.6554000000	  33.3942000000	   1.2364900000
O	  51.9016000000	  33.6678000000	  -0.2163897015
O	  51.5123000000	  34.5665000000	   2.0602400000
C	  49.9898000000	  32.6432000000	   1.2109700000
F	  49.1073000000	  33.4722000000	   0.7162102985
F	  49.9415000000	  31.5432000000	   0.4599102985
F	  49.6085000000	  32.3320000000	   2.4536200000
N	  52.8369000000	  35.2613000000	   6.6157000000
S	  51.7325000000	  34.1597000000	   6.4071500000
O	  50.8560000000	  34.3557000000	   5.3278500000
O	  52.1962000000	  32.8265000000	   6.6103100000
C	  50.7207000000	  34.4627000000	   7.9399700000
F	  49.9379000000	  35.5202000000	   7.7092300000
F	  51.4694000000	  34.7293000000	   9.0055900000
F	  49.9278000000	  33.4114000000	   8.2354600000
S	  53.1551000000	  36.5472000000	   5.8377000000
O	  52.9448000000	  37.7435000000	   6.5780200000
O	  52.8213000000	  36.5483000000	   4.4504000000
C	  55.0172000000	  36.4016000000	   5.7498700000
F	  55.3980000000	  37.5631000000	   5.2873800000
F	  55.5542000000	  36.0860000000	   6.9076400000
F	  55.3959000000	  35.5161000000	   4.9163100000
S	  53.4605000000	  37.4180000000	   1.3565800000
S	  53.3646000000	  39.4631000000	   1.4308600000
S	  53.6896000000	  40.2107000000	  -0.4634897015
S	  51.0826000000	  44.0749000000	  -0.8789897015
S	  51.2814000000	  46.0949000000	  -1.4261897015
S	  53.0456000000	  47.1349000000	  -0.8638897015
S	  52.1717000000	  42.8167000000	  -2.2055897015
S	  52.0138000000	  40.7800000000	  -1.6032897015
