53

Li	   8.8871800000	  34.9539000000	  14.7807000000
O	   8.2464600000	  36.9317000000	  11.3479000000
O	   8.1738800000	  36.4069000000	  13.5587000000
C	   6.8331700000	  36.6676000000	  11.7033000000
C	   6.8549200000	  36.8499000000	  13.2486000000
C	   8.9914000000	  36.7885000000	  12.5185000000
H	   6.1268400000	  37.2471000000	  11.0888000000
H	   6.6859100000	  35.6412000000	  11.4403000000
H	   6.6939000000	  37.9584000000	  13.4835000000
H	   6.1173200000	  36.3363000000	  13.7712000000
H	   9.6989800000	  35.9465000000	  12.4287000000
H	   9.4651400000	  37.7137000000	  12.8508000000
O	   7.6178400000	  35.6670000000	  16.2472000000
O	   7.1880600000	  36.4528000000	  18.4223000000
C	   6.4090500000	  35.0352000000	  16.6416000000
C	   6.2093000000	  35.4499000000	  18.1241000000
C	   7.7563600000	  36.7217000000	  17.1918000000
H	   5.4921700000	  35.1541000000	  16.0697000000
H	   6.6524400000	  33.9695000000	  16.5175000000
H	   5.1799300000	  35.8074000000	  18.3083000000
H	   6.4290700000	  34.6400000000	  18.7848000000
H	   8.8686100000	  36.9599000000	  17.3344000000
H	   7.2318100000	  37.5746000000	  16.8550000000
N	   7.7672300000	  32.0961000000	  11.4550000000
S	   7.1631300000	  32.7508000000	  12.7182000000
O	   8.0832300000	  33.6072000000	  13.4658000000
O	   5.8098000000	  33.0870000000	  12.5572000000
C	   7.0472400000	  31.2976000000	  13.8296000000
F	   6.3157800000	  30.2629000000	  13.3982000000
F	   6.6239600000	  31.6351000000	  14.9910000000
F	   8.2489300000	  30.7714000000	  13.9896000000
S	   8.7071500000	  32.6512000000	  10.3307000000
O	  10.0144000000	  32.0189000000	  10.1664000000
O	   8.6775300000	  34.1151000000	  10.2917000000
C	   7.7956000000	  32.1618000000	   8.8246700000
F	   8.0520900000	  30.9372000000	   8.4726600000
F	   6.4952800000	  32.3115000000	   8.9594500000
F	   8.1398900000	  32.9065000000	   7.7867500000
N	  11.8585000000	  33.9799000000	  16.5228000000
S	  11.7897000000	  35.3594000000	  15.7809000000
O	  10.4509000000	  35.8308000000	  15.4746000000
O	  12.7411000000	  36.3239000000	  16.2166000000
C	  12.5664000000	  34.8690000000	  14.1741000000
F	  12.2772000000	  35.8057000000	  13.2837000000
F	  12.0386000000	  33.7155000000	  13.7389000000
F	  13.9178000000	  34.7140000000	  14.3319000000
S	  10.6887000000	  32.9787000000	  16.5757000000
O	  11.1184000000	  31.5883000000	  16.7189000000
O	   9.5535400000	  33.2416000000	  15.7500000000
C	  10.0048000000	  33.2138000000	  18.2201000000
F	   9.5731000000	  34.4541000000	  18.4330000000
F	   8.9473900000	  32.4454000000	  18.3567000000
F	  10.8740000000	  32.9096000000	  19.1739000000
