68

Li	  24.8636000000	   6.3050000000	  54.5198000000
O	  21.7344000000	   5.8679500000	  51.5301000000
O	  23.7684000000	   6.3751100000	  52.4611000000
C	  21.9758000000	   7.1895000000	  50.9881000000
C	  23.4358000000	   7.2405700000	  51.3623000000
C	  22.5048000000	   5.7769600000	  52.6861000000
H	  21.7920000000	   7.2601200000	  49.9447000000
H	  21.4223000000	   7.9711800000	  51.4829000000
H	  24.0297000000	   6.7452000000	  50.5997000000
H	  23.8603000000	   8.2384100000	  51.5256000000
H	  21.9622000000	   6.3021400000	  53.4484000000
H	  22.5355000000	   4.7891700000	  52.9033000000
O	  27.4963000000	   3.1132600000	  54.0695000000
O	  25.9174000000	   4.7770500000	  54.1494000000
C	  26.3057000000	   2.5566200000	  53.7245000000
C	  25.4308000000	   3.7265600000	  53.3913000000
C	  27.2908000000	   4.5004000000	  54.2030000000
H	  26.2808000000	   1.7112700000	  53.0138000000
H	  25.9738000000	   2.1990400000	  54.6108000000
H	  25.5667000000	   3.9717200000	  52.3680000000
H	  24.3843000000	   3.4552500000	  53.5603000000
H	  27.7167000000	   4.8852800000	  55.1130000000
H	  27.7481000000	   5.0475200000	  53.4411000000
N	  28.0176000000	   7.6037100000	  55.7040000000
S	  27.4124000000	   8.2687000000	  54.4665000000
O	  26.5022000000	   7.3975300000	  53.7036000000
O	  27.0878000000	   9.6451200000	  54.5990000000
C	  28.8578000000	   8.2907800000	  53.2842000000
F	  28.6103000000	   9.1479200000	  52.3842000000
F	  29.0289000000	   7.0946300000	  52.7204000000
F	  29.9843000000	   8.6959100000	  53.7867000000
S	  28.2627000000	   8.3126100000	  57.1017000000
O	  27.3360000000	   7.9681900000	  58.1594000000
O	  28.5326000000	   9.7070400000	  57.0390000000
C	  29.7942000000	   7.5278000000	  57.6452000000
F	  29.6450000000	   6.2440700000	  58.0594000000
F	  30.6947000000	   7.5095900000	  56.6806000000
F	  30.3419000000	   8.2100100000	  58.6417000000
N	  23.3764000000	   5.3554900000	  57.9448000000
S	  24.8742000000	   5.6513900000	  57.8883000000
O	  25.4934000000	   6.1078100000	  56.6436000000
O	  25.3649000000	   6.2230200000	  59.0869777015
C	  25.5226000000	   3.9217400000	  57.8792000000
F	  25.2123000000	   3.2364700000	  56.7877000000
F	  25.1232000000	   3.2421600000	  58.9350000000
F	  26.9001000000	   3.9433200000	  57.9892000000
S	  22.4046000000	   5.4690600000	  56.7164000000
O	  23.0633000000	   5.2714100000	  55.4650000000
O	  21.3954000000	   6.4979400000	  56.8295000000
C	  21.3615000000	   3.9395400000	  56.8950000000
F	  22.1173000000	   2.8432200000	  57.1125000000
F	  20.4738000000	   4.0669300000	  57.8896000000
F	  20.6505000000	   3.7372400000	  55.7840000000
N	  23.1423000000	   9.3036500000	  57.0253000000
S	  23.5766000000	   9.3815200000	  55.5437000000
O	  24.3329000000	  10.5889000000	  55.3157000000
O	  24.1647000000	   8.1408300000	  55.0786000000
C	  22.0673000000	   9.4553400000	  54.6193000000
F	  22.2195000000	   9.5457700000	  53.3066000000
F	  21.4023000000	  10.4626000000	  55.1096000000
F	  21.3668000000	   8.3339000000	  54.7831000000
S	  23.8769000000	   9.9468500000	  58.3229000000
O	  24.5097000000	  11.2433000000	  58.0978000000
O	  24.6666000000	   9.0164900000	  59.0502000000
C	  22.3972000000	  10.2495000000	  59.3146997015
F	  21.6836000000	  11.1518000000	  58.7032000000
F	  21.6078000000	   9.2168100000	  59.4415897015
F	  22.7237000000	  10.6421000000	  60.5590497015
