44

Li	  10.9596000000	  54.7301000000	  48.4099000000
O	  12.9632000000	  55.5666000000	  47.4986000000
O	  14.6457000000	  54.3743000000	  46.6439000000
C	  14.0856000000	  55.8453000000	  48.2832000000
C	  15.2674000000	  55.0922000000	  47.6462000000
C	  13.4811000000	  55.1313000000	  46.2998000000
H	  14.2357000000	  56.8682000000	  48.3070000000
H	  13.8805000000	  55.4428000000	  49.2797000000
H	  15.9865000000	  55.8137000000	  47.2362000000
H	  15.7436000000	  54.4644000000	  48.2996000000
H	  12.8084000000	  54.5867000000	  45.7114000000
H	  13.7417000000	  56.0350000000	  45.7350000000
O	  11.5385000000	  53.1518000000	  47.4980000000
C	  14.1387000000	  50.7518000000	  49.1366000000
C	  15.4565000000	  51.0415000000	  48.4406000000
C	  13.1608000000	  51.8868000000	  48.9572000000
C	  16.5807000000	  50.0408000000	  48.8286000000
C	  12.5363000000	  52.0726000000	  47.5239000000
C	  17.1255000000	  50.3118000000	  50.2317000000
C	  10.4255000000	  52.7975000000	  46.6110000000
H	  14.2959000000	  50.5558000000	  50.1525000000
H	  13.7486000000	  49.7997000000	  48.7174000000
H	  15.3830000000	  51.0410000000	  47.3371000000
H	  15.7284000000	  52.0102000000	  48.7326000000
H	  13.7347000000	  52.7904000000	  49.2474000000
H	  12.3862000000	  51.6577000000	  49.7215000000
H	  16.3023000000	  49.0438000000	  48.7671000000
H	  17.4227000000	  50.0830000000	  48.1019000000
H	  12.1616000000	  51.1443000000	  47.0538000000
H	  13.3427000000	  52.3216000000	  46.8200000000
H	  17.3154000000	  51.4104000000	  50.4372000000
H	  16.6331000000	  49.8207000000	  51.0480000000
H	  18.0145000000	  49.7202000000	  50.2976000000
H	  10.6411000000	  52.4959000000	  45.5645000000
H	   9.8723900000	  52.0055000000	  47.0362000000
H	   9.6780600000	  53.6138000000	  46.6733000000
S	  13.9497000000	  61.1114961978	  53.1443000000
S	  12.4170000000	  59.6453661978	  53.1846000000
S	  12.3907000000	  58.4031000000	  51.4031000000
S	  10.6508000000	  54.0676000000	  50.5142000000
S	   9.1007900000	  55.1766000000	  49.5707000000
S	   9.7456100000	  56.4129000000	  47.9090000000
S	  11.2991000000	  55.1957000000	  52.2374000000
S	  12.9898000000	  56.3087000000	  51.7820000000
