39

Li	  48.7658000000	  22.5624000000	  18.0898000000
O	  47.0388000000	  21.6370000000	  17.5645000000
O	  44.8888000000	  21.1168000000	  17.7130000000
C	  46.8267000000	  20.4786000000	  16.7261000000
C	  45.3321000000	  20.4760000000	  16.5222000000
C	  45.7832000000	  22.1473000000	  17.8649000000
H	  47.3756000000	  20.4879000000	  15.7734000000
H	  47.0911000000	  19.6180000000	  17.2453000000
H	  45.2478000000	  21.0937000000	  15.6938000000
H	  44.8255000000	  19.5035000000	  16.3679000000
H	  45.8146000000	  22.5709000000	  18.8495000000
H	  45.5651000000	  22.8666000000	  17.0719000000
O	  48.9223000000	  23.3105000000	  16.4097000000
O	  49.9022000000	  24.1432000000	  14.5694000000
C	  47.9792000000	  24.1567000000	  15.8278000000
C	  48.8165000000	  24.9652000000	  14.9131000000
C	  49.7019000000	  22.9992000000	  15.3231000000
H	  47.2706000000	  23.5400000000	  15.3111000000
H	  47.4585000000	  24.7297000000	  16.6475000000
H	  48.2553000000	  25.3850000000	  14.0628000000
H	  49.4318000000	  25.7463000000	  15.3272000000
H	  50.7067000000	  22.6395000000	  15.5228000000
H	  49.2163000000	  22.3268000000	  14.5487000000
S	  49.8725000000	  21.0427000000	  18.9746000000
S	  50.6839000000	  20.0937000000	  17.1249000000
S	  52.5766000000	  19.3026000000	  17.4842000000
S	  57.4450000000	  20.6713000000	  16.0337000000
S	  58.4571000000	  18.8412000000	  16.6453000000
S	  59.4507960364	  17.9218000000	  15.0472000000
S	  55.4111000000	  20.1680000000	  15.6684000000
S	  54.1945000000	  20.6524000000	  17.2683000000
S	  53.3360000000	  30.7515000000	  25.3241000000
S	  51.3278000000	  30.3009000000	  24.7790000000
S	  50.6335000000	  28.9296000000	  26.2546000000
S	  49.6088000000	  25.9255000000	  22.2154000000
S	  49.2676000000	  23.9755000000	  21.6111000000
S	  48.1359000000	  23.9276000000	  19.7827000000
S	  49.0359000000	  26.3656000000	  24.2389000000
S	  50.7494000000	  26.9947000000	  25.3113000000
