41

Li	  29.6634000000	  45.3510000000	  30.9611000000
O	  31.0495000000	  46.2387000000	  29.9109000000
C	  30.9058000000	  46.5693000000	  26.9073000000
C	  30.1979000000	  46.6195000000	  25.5410000000
C	  29.9830000000	  47.2190000000	  27.9886000000
C	  30.6961000000	  45.6137000000	  24.3992000000
C	  30.7591000000	  47.5040000000	  29.3266000000
C	  29.9338000000	  45.9429000000	  23.1897000000
C	  32.3718000000	  45.7217000000	  29.9104000000
H	  31.8568000000	  47.0524000000	  26.7947000000
H	  31.0021000000	  45.5881000000	  27.2162000000
H	  29.1528000000	  46.5130000000	  25.7385000000
H	  30.2828000000	  47.6243000000	  25.1355000000
H	  29.1890000000	  46.5396000000	  28.2087000000
H	  29.6484000000	  48.2413000000	  27.6598000000
H	  31.7777000000	  45.8293000000	  24.1070000000
H	  30.5971000000	  44.5374000000	  24.7573000000
H	  30.1331000000	  47.9916000000	  30.0711000000
H	  31.5773000000	  48.1387000000	  29.0664000000
H	  30.2592000000	  45.2706000000	  22.4363000000
H	  28.8856000000	  45.7832000000	  23.3657000000
H	  30.0144000000	  47.0059000000	  22.9412000000
H	  32.8978000000	  46.2727000000	  30.6820000000
H	  32.3817000000	  44.6882000000	  30.1739000000
H	  32.8899000000	  45.9017000000	  28.9857000000
S	  29.5086000000	  45.9998000000	  33.0126000000
S	  29.1104000000	  48.0473000000	  32.5379000000
S	  29.1313000000	  49.3915000000	  34.1706000000
S	  26.9118000000	  52.2819000000	  36.3019000000
S	  27.9727000000	  53.7299000000	  35.1456000000
S	  27.0948000000	  55.6766000000	  34.9893000000
S	  26.0337000000	  50.8002000000	  35.1710000000
S	  27.3681000000	  49.1647000000	  35.3608000000
S	  20.8927000000	  44.2261000000	  31.5833000000
S	  22.6602000000	  43.8312000000	  30.4377000000
S	  22.9297000000	  44.9812000000	  28.6861000000
S	  27.2553000000	  45.4470000000	  30.3017000000
S	  28.3905000000	  43.9878000000	  29.3868000000
S	  29.8795000000	  43.3335000000	  30.6915000000
S	  26.1433000000	  46.3162000000	  28.7723000000
S	  24.1371000000	  46.6622000000	  29.2042000000
