64

Li	  39.0038000000	  11.3328000000	   2.7332600000
O	  39.3708000000	  10.5001000000	   4.2343000000
C	  42.1552000000	  10.7167000000	   4.5712200000
C	  43.4356000000	  10.2794000000	   5.2775100000
C	  41.1810000000	  11.3492000000	   5.5537600000
C	  44.6629000000	  10.1226000000	   4.3674100000
C	  39.7889000000	  11.6681000000	   4.9632000000
C	  45.7257000000	   9.1606400000	   4.9512700000
C	  39.1381000000	   9.3668400000	   5.0164100000
H	  41.7907000000	   9.8723700000	   4.0878000000
H	  42.3909000000	  11.5586000000	   3.8092600000
H	  43.7239000000	  10.9820000000	   6.0048900000
H	  43.1843000000	   9.4362300000	   5.8427800000
H	  41.6621000000	  12.2352000000	   5.9909800000
H	  41.1306000000	  10.5989000000	   6.3700600000
H	  44.2894000000	   9.7178500000	   3.4378800000
H	  45.1719000000	  11.0340000000	   4.1616000000
H	  39.9371000000	  12.4675000000	   4.2974100000
H	  39.1256000000	  11.8520000000	   5.8093300000
H	  46.6695000000	   9.2091300000	   4.3185300000
H	  46.0849000000	   9.3135000000	   5.9665000000
H	  45.3063000000	   8.1541500000	   4.9454100000
H	  38.1312000000	   9.2140900000	   5.3611700000
H	  39.3625000000	   8.4516300000	   4.5052700000
H	  39.7948000000	   9.1201700000	   5.8625800000
O	  37.3824000000	  11.1879000000	   1.9586900000
C	  37.0942000000	  14.3977000000	   0.1406102985
C	  37.6663000000	  15.8357000000	   0.3485102985
C	  37.4340000000	  13.4372000000	   1.3576300000
C	  36.9347000000	  16.4517000000	   1.5720100000
C	  36.9990000000	  12.0669000000	   0.9250102985
C	  37.2748000000	  17.8847000000	   1.7986900000
C	  36.3263000000	  10.2841000000	   2.1065000000
H	  37.5508000000	  14.0946000000	  -0.8021897015
H	  36.0256000000	  14.3764000000	   0.0074102985
H	  38.7228000000	  15.9306000000	   0.4450102985
H	  37.3486000000	  16.4659000000	  -0.5114897015
H	  36.8429000000	  13.8354000000	   2.1441200000
H	  38.4257000000	  13.5508000000	   1.5382800000
H	  35.8151000000	  16.3418000000	   1.4827400000
H	  37.2334000000	  15.8482000000	   2.4239400000
H	  37.5175000000	  11.8038000000	  -0.0143897015
H	  35.9004000000	  12.0667000000	   0.7122102985
H	  38.3521000000	  17.9475000000	   1.9387300000
H	  37.1387000000	  18.4617000000	   0.8527102985
H	  36.6899000000	  18.5113000000	   2.5176800000
H	  35.4632000000	  10.7771000000	   2.4958000000
H	  36.0443000000	   9.8545700000	   1.1924400000
H	  36.7982000000	   9.6084300000	   2.8830800000
N	  40.5499000000	  10.5347000000	  -0.1336897015
S	  39.6676000000	   9.4373600000	   0.4030102985
O	  39.5673000000	   9.4070900000	   1.8376700000
O	  38.4640000000	   9.2240700000	  -0.2976897015
C	  40.7145000000	   8.0352800000	  -0.0470897015
F	  40.2404000000	   6.8625800000	   0.3873102985
F	  41.9409000000	   8.1825400000	   0.3644102985
F	  40.7975000000	   7.8201900000	  -1.3328897015
S	  41.0570000000	  11.7756000000	   0.6156102985
O	  40.4998000000	  12.0368000000	   1.9043700000
O	  40.9810000000	  12.9559000000	  -0.1846897015
C	  42.9223000000	  11.4604000000	   0.8414102985
F	  43.0449000000	  10.3898000000	   1.6117600000
F	  43.4204000000	  11.1342000000	  -0.3395897015
F	  43.6747000000	  12.4489000000	   1.2781500000
