56

Li	  10.7965000000	  14.1016000000	  28.4927000000
O	  12.3443000000	  14.8540000000	  28.0704000000
C	  11.5253000000	  16.5069000000	  24.6814000000
C	  10.6573000000	  15.9833000000	  23.4999000000
C	  11.3496000000	  15.4623000000	  25.7927000000
C	  11.0107000000	  16.7933000000	  22.2217000000
C	  12.1801000000	  15.9164000000	  27.0449000000
C	  10.1176000000	  16.3278000000	  21.0911000000
C	  13.3279000000	  15.4147000000	  28.9519000000
H	  11.3094000000	  17.5651000000	  24.9987000000
H	  12.5362000000	  16.5595000000	  24.3382000000
H	  10.9943000000	  14.9984000000	  23.2663000000
H	   9.5959400000	  15.9393000000	  23.7183000000
H	  11.7098000000	  14.5178000000	  25.4085000000
H	  10.3036000000	  15.4145000000	  26.0562000000
H	  10.8248000000	  17.8537000000	  22.2781000000
H	  12.0475000000	  16.5138000000	  21.9660000000
H	  11.7681000000	  16.8090000000	  27.5264000000
H	  13.0484000000	  16.2918000000	  26.5622000000
H	  10.2403000000	  15.2404000000	  20.9962000000
H	   9.0535200000	  16.6215000000	  21.2391000000
H	  10.5254000000	  16.6952000000	  20.1433000000
H	  13.6362000000	  14.5164000000	  29.5350000000
H	  14.2287000000	  15.6934000000	  28.4158000000
H	  12.8698000000	  16.1733000000	  29.6878000000
N	  10.6664000000	  12.0499000000	  32.4081000000
S	  10.6534000000	  11.7860000000	  30.8410000000
O	   9.3522700000	  11.4663000000	  30.3283000000
O	  11.4979000000	  12.7190000000	  30.1210000000
C	  11.6358000000	  10.2913000000	  30.7334000000
F	  12.9602000000	  10.4546000000	  30.8804000000
F	  11.3356000000	   9.6031500000	  29.6877000000
F	  11.2765000000	   9.4631600000	  31.7075000000
S	  10.0962000000	  13.4062000000	  32.9562000000
O	   9.1634700000	  14.0618000000	  32.0910000000
O	  11.1447000000	  14.1580000000	  33.6252000000
C	   9.0892500000	  12.7538000000	  34.3834000000
F	   8.9637100000	  13.6737000000	  35.3145000000
F	   7.8680500000	  12.4674000000	  33.9670000000
F	   9.4964200000	  11.6507000000	  35.0205000000
S	   9.7807200000	  16.0090000000	  29.5588000000
S	   9.2238700000	  17.8856000000	  28.8760000000
S	   8.7399600000	  17.7512000000	  26.8993000000
S	   5.2107100000	  20.7136000000	  27.1122000000
S	   3.1871500000	  20.2417000000	  27.7036000000
S	   2.2502300000	  21.5742000000	  29.2742000000
S	   5.9546400000	  19.4702000000	  25.5657000000
S	   6.6689800000	  17.6787000000	  26.3618000000
S	   0.5065039636	  11.0495000000	  22.2097000000
S	   0.9789140000	  12.9107000000	  23.1830000000
S	   2.9100000000	  13.4747000000	  22.7034000000
S	   7.4061400000	  13.6484000000	  24.8192000000
S	   8.6149400000	  12.0949000000	  25.6195000000
S	   9.6461700000	  12.6597000000	  27.3852000000
S	   6.2558200000	  12.8579000000	  23.2305000000
S	   4.3307000000	  12.7281000000	  24.0385000000
