72

Li	  50.7837000000	  29.4454000000	  21.2247000000
O	  52.5680000000	  30.0475000000	  21.5543000000
C	  55.1765000000	  28.3498000000	  19.4443000000
C	  56.2431000000	  29.3872000000	  18.8859000000
C	  54.5209000000	  28.8358000000	  20.7659000000
C	  57.0212000000	  28.6549000000	  17.8108000000
C	  53.4307000000	  29.8200000000	  20.4126000000
C	  58.1192000000	  29.6255000000	  17.2743000000
C	  52.8463000000	  31.2019000000	  22.2631000000
H	  55.5432000000	  27.2874000000	  19.6760000000
H	  54.4795000000	  28.1486000000	  18.5922000000
H	  55.7853000000	  30.3400000000	  18.4709000000
H	  56.9070000000	  29.7328000000	  19.6855000000
H	  55.2553000000	  29.3189000000	  21.4108000000
H	  54.0374000000	  28.0830000000	  21.4391000000
H	  57.3518000000	  27.8131000000	  18.3364000000
H	  56.2608000000	  28.2473000000	  17.0758000000
H	  52.9055000000	  29.4001000000	  19.5311000000
H	  53.8099000000	  30.7496000000	  19.9743000000
H	  58.8358000000	  29.9349000000	  17.9978000000
H	  58.7606000000	  29.0111000000	  16.6087000000
H	  57.7217000000	  30.4600000000	  16.6929000000
H	  53.8275000000	  31.3355000000	  22.7391000000
H	  52.6448000000	  32.1181000000	  21.7591000000
H	  52.2188000000	  31.1502000000	  23.0797000000
O	  50.3496000000	  30.7884000000	  19.7878000000
C	  48.6242000000	  33.1489000000	  21.9186000000
C	  49.5452000000	  34.2238000000	  22.3868000000
C	  49.2417000000	  31.8751000000	  21.5202000000
C	  48.8075000000	  35.6000000000	  22.5741000000
C	  49.4895000000	  31.9271000000	  20.0079000000
C	  47.8777000000	  35.8025000000	  23.8527000000
C	  50.5120000000	  30.5942000000	  18.3772000000
H	  47.9562000000	  33.6107000000	  21.1678000000
H	  47.9488000000	  32.9163000000	  22.7498000000
H	  50.1425000000	  33.9078000000	  23.2531000000
H	  50.2354000000	  34.4121000000	  21.6198000000
H	  48.5523000000	  31.0458000000	  21.7230000000
H	  50.1353000000	  31.7093000000	  22.1911000000
H	  49.5708000000	  36.3623000000	  22.4975000000
H	  48.2093000000	  35.7936000000	  21.6662000000
H	  49.9686000000	  32.8965000000	  19.7217000000
H	  48.5514000000	  31.7448000000	  19.4496000000
H	  48.4834000000	  35.4890000000	  24.6657000000
H	  47.6735000000	  36.9081000000	  23.8520000000
H	  47.0299000000	  35.1284000000	  23.6823000000
H	  51.2542000000	  29.8440000000	  18.1073000000
H	  49.5744000000	  30.2988000000	  17.9056000000
H	  50.8645000000	  31.5228000000	  17.8969000000
N	  46.9131000000	  28.1242000000	  20.7939000000
S	  47.9756000000	  28.1167000000	  19.6031000000
O	  47.6137000000	  28.9066000000	  18.4109000000
O	  49.3544000000	  28.2438000000	  20.0034000000
C	  47.6969000000	  26.4202000000	  18.9161000000
F	  48.4193000000	  26.1658000000	  17.8179000000
F	  46.4571000000	  26.3140000000	  18.5624000000
F	  47.9560000000	  25.5577000000	  19.8119000000
S	  47.0846000000	  27.9590000000	  22.4071000000
O	  47.0300000000	  29.2306000000	  23.0930000000
O	  47.9997000000	  26.9854000000	  22.9134000000
C	  45.6040000000	  27.1332000000	  22.8317000000
F	  45.6474000000	  26.6106000000	  24.0465000000
F	  44.5002000000	  27.8847000000	  22.8829000000
F	  45.4192000000	  26.0400000000	  22.0705000000
S	  60.0019860364	  26.9329000000	  22.8238000000
S	  58.1658000000	  26.5170000000	  21.7927000000
S	  57.4304000000	  24.4956000000	  22.1169000000
S	  52.3510000000	  25.3750000000	  23.1268000000
S	  51.6344000000	  26.7897000000	  21.8425000000
S	  50.7639000000	  28.2599000000	  23.0512000000
S	  53.9580000000	  24.3132000000	  22.3336000000
S	  55.7875000000	  24.4427000000	  23.4214000000
