52

Li	  13.4859000000	  52.4047000000	  49.4721000000
O	  14.1362000000	  50.4091000000	  53.3623000000
O	  14.4016000000	  51.5454000000	  51.4700000000
C	  12.8237000000	  50.6216000000	  53.0263000000
C	  13.1345000000	  51.8047000000	  52.0342000000
C	  14.7966000000	  50.4638000000	  52.2037000000
H	  12.4038000000	  49.6615000000	  52.6423000000
H	  12.2167000000	  50.9603000000	  53.8724000000
H	  12.3630000000	  51.7525000000	  51.1981000000
H	  13.0467000000	  52.7936000000	  52.4827000000
H	  15.8801000000	  50.5699000000	  52.3179000000
H	  14.6253000000	  49.5602000000	  51.6022000000
O	  12.3664000000	  50.9698000000	  49.0186000000
C	   9.4330300000	  51.0205000000	  50.3335000000
C	   8.2334200000	  50.3441000000	  50.9984000000
C	   9.8994200000	  50.5082000000	  49.0019000000
C	   7.7480800000	  51.0883000000	  52.2370000000
C	  11.0877000000	  51.2126000000	  48.4366000000
C	   8.5871900000	  50.9812000000	  53.5284000000
C	  12.8280000000	  49.6383000000	  48.7723000000
H	  10.2914000000	  50.9012000000	  51.0003000000
H	   9.3354200000	  52.1047000000	  50.3866000000
H	   7.4548100000	  50.3786000000	  50.2844000000
H	   8.4286100000	  49.2955000000	  51.1290000000
H	   9.0609300000	  50.8083000000	  48.3106000000
H	   9.9779500000	  49.3965000000	  49.0851000000
H	   7.6579100000	  52.1077000000	  52.0059000000
H	   6.7454800000	  50.8103000000	  52.5127000000
H	  10.8816000000	  52.2479000000	  48.2384000000
H	  11.1526000000	  50.8704000000	  47.3983000000
H	   8.7525300000	  49.9337000000	  53.8843000000
H	   9.6283600000	  51.2074000000	  53.2038000000
H	   8.3180000000	  51.6925000000	  54.2565000000
H	  12.8253000000	  49.3666000000	  47.6797000000
H	  13.8663000000	  49.6419000000	  49.0709000000
H	  12.2570000000	  48.9870000000	  49.2591000000
S	  15.4798000000	  52.0315000000	  48.2710000000
S	  15.2244000000	  50.8240000000	  46.5291000000
S	  14.2857000000	  51.7571000000	  44.9095000000
S	  11.7944000000	  49.3396000000	  41.8736000000
S	  13.7290000000	  48.7456000000	  41.5254000000
S	  14.5194000000	  49.6081000000	  39.7625000000
S	  11.8026000000	  51.2907000000	  42.7299000000
S	  12.2081000000	  51.2270000000	  44.7420000000
S	  12.3587000000	  54.3545000000	  49.6714000000
S	  13.9436000000	  55.7135000000	  49.9589000000
S	  13.8140000000	  57.3618000000	  48.8199000000
S	  10.7297000000	  60.6875361978	  47.2318000000
S	  11.5612000000	  60.2393061978	  45.2694000000
S	  10.3294000000	  60.6713561978	  43.6840000000
S	  10.8577000000	  58.9967000000	  48.5730000000
S	  12.7018000000	  58.9339000000	  49.6573000000
