64

Li	   7.2097200000	  48.2166000000	   5.9179500000
O	   8.8558800000	  48.3975000000	   7.2453800000
O	  10.7179000000	  49.0502000000	   8.3399300000
C	   9.3969500000	  47.2057000000	   7.7190200000
C	  10.3674000000	  47.7547000000	   8.7889600000
C	   9.6592200000	  49.4525000000	   7.5123400000
H	   8.7545800000	  46.5772000000	   8.2928500000
H	   9.8767300000	  46.5391000000	   7.0285100000
H	   9.6099900000	  47.8645000000	   9.6634700000
H	  11.2427000000	  47.0922000000	   8.9435500000
H	  10.1505000000	  49.6783000000	   6.6334900000
H	   9.1335000000	  50.3544000000	   7.8651300000
O	   5.9009200000	  50.8769000000	   3.3917900000
O	   6.0657800000	  49.6586000000	   5.3044300000
C	   5.8249900000	  51.8046000000	   4.4543900000
C	   6.2502400000	  51.0319000000	   5.6802000000
C	   5.4483200000	  49.7314000000	   4.0387500000
H	   6.6122600000	  52.5679000000	   4.3541100000
H	   4.8678600000	  52.3266000000	   4.5854800000
H	   7.2732100000	  51.3482000000	   5.8507800000
H	   5.7618800000	  51.3106000000	   6.5661700000
H	   4.3844600000	  49.8257000000	   4.1182800000
H	   5.6073700000	  48.8737000000	   3.4099100000
O	  10.9364000000	  48.4518000000	   4.7416500000
O	   8.7156200000	  48.2620000000	   4.4708400000
C	  10.6294000000	  49.5950000000	   4.0394900000
C	   9.0918500000	  49.5019000000	   3.9022100000
C	   9.9353300000	  47.5674000000	   4.3224200000
H	  10.9361000000	  50.5735000000	   4.5642300000
H	  11.0168000000	  49.6224000000	   2.9941300000
H	   8.6604100000	  50.3693000000	   4.3797900000
H	   8.7415600000	  49.3909000000	   2.9507500000
H	  10.0522000000	  47.2967000000	   3.2644400000
H	   9.8014100000	  46.6928000000	   4.9091900000
N	   5.2698400000	  44.1371000000	   4.9905900000
S	   6.4536600000	  44.5309000000	   5.9222800000
O	   6.8241600000	  45.9223000000	   5.9288900000
O	   6.2431900000	  43.9737000000	   7.2388600000
C	   7.9090000000	  43.6105000000	   5.2283600000
F	   8.0242900000	  43.8006000000	   3.8849100000
F	   7.7803500000	  42.3026000000	   5.5565500000
F	   9.0598600000	  43.9967000000	   5.8287000000
S	   4.1832800000	  45.1000000000	   4.3109200000
O	   4.4606200000	  46.5124000000	   4.3842300000
O	   2.7842000000	  44.6744000000	   4.6065300000
C	   4.2899500000	  44.7547000000	   2.5375000000
F	   5.4760800000	  45.2115000000	   2.0289600000
F	   4.3035900000	  43.4717000000	   2.2741800000
F	   3.4164600000	  45.3304000000	   1.7964200000
N	   4.7710000000	  47.5808000000	   9.6575400000
S	   4.8593800000	  47.6150000000	   8.1575800000
O	   6.1140000000	  48.1199000000	   7.5970800000
O	   4.2811100000	  46.4251000000	   7.4947800000
C	   3.5506200000	  48.8354000000	   7.8126100000
F	   3.8408600000	  50.0276000000	   8.2712500000
F	   2.4158000000	  48.4948000000	   8.3269300000
F	   3.3036600000	  48.9738000000	   6.4953500000
S	   4.9551600000	  46.3518000000	  10.5368000000
O	   5.5398400000	  45.2201000000	   9.8801000000
O	   3.8151200000	  46.0191000000	  11.3863000000
C	   6.2385000000	  46.9204000000	  11.6456000000
F	   5.7854300000	  47.8457000000	  12.4863000000
F	   6.7386400000	  45.9383000000	  12.3587000000
F	   7.3450000000	  47.4049000000	  11.0842000000
