41

Li	  55.7975000000	  47.3160000000	  58.6053000000
O	  57.1270000000	  46.1076000000	  58.9401000000
C	  55.5686000000	  42.9187000000	  60.2792397015
C	  54.4033000000	  42.6233000000	  61.2354197015
C	  55.7713000000	  44.4165000000	  60.0567497015
C	  52.8995000000	  43.1377000000	  60.9064597015
C	  57.0205000000	  44.7659000000	  59.3035297015
C	  51.8525000000	  42.9195000000	  62.0484297015
C	  58.2032000000	  46.3210000000	  58.0211000000
H	  55.4131000000	  42.4651000000	  59.3198297015
H	  56.5383000000	  42.5000000000	  60.5716597015
H	  54.3313000000	  41.5630000000	  61.4563797015
H	  54.7174000000	  43.0660000000	  62.1642597015
H	  55.8196000000	  44.9337000000	  61.0802597015
H	  54.8309000000	  44.8628000000	  59.6811397015
H	  52.8093000000	  44.2058000000	  60.6145297015
H	  52.4710000000	  42.5112000000	  60.1877297015
H	  57.0116000000	  44.2142000000	  58.3691000000
H	  57.9709000000	  44.4478000000	  59.7284097015
H	  51.8851000000	  41.9124000000	  62.4912397015
H	  52.0668000000	  43.6732000000	  62.8363997015
H	  50.8691000000	  43.1407000000	  61.7416697015
H	  59.0197000000	  45.8862000000	  58.5581000000
H	  58.1846000000	  45.7944000000	  57.0739000000
H	  58.3595000000	  47.3763000000	  57.8233000000
S	  50.2891000000	  40.6590000000	  57.6446000000
S	  48.8511000000	  42.0689000000	  57.1513000000
S	  49.5839000000	  43.6131000000	  55.8668000000
S	  53.2161000000	  46.2133000000	  55.9048000000
S	  55.1975000000	  46.3254000000	  56.2967000000
S	  55.6103000000	  48.3433000000	  56.5373000000
S	  51.9220000000	  45.5829000000	  57.4527000000
S	  49.8923000000	  45.4274000000	  56.9069000000
S	  54.0348000000	  47.8241000000	  59.9794797015
S	  55.4623000000	  49.4699000000	  59.6256297015
S	  57.0591000000	  49.6123000000	  61.0081797015
S	  60.0611860364	  45.4264000000	  61.7602897015
S	  58.6511000000	  44.1660000000	  62.7666697015
S	  59.5556660364	  42.6547000000	  63.9139697015
S	  59.7738860364	  47.5196000000	  62.0035797015
S	  58.8341000000	  48.6446000000	  60.3429897015
