64

Li	  22.2088000000	   6.8721100000	  43.8042000000
O	  21.9672000000	   8.1188500000	  45.0858000000
C	  20.8774000000	   6.2799600000	  48.2838000000
C	  22.2330000000	   5.6051700000	  48.7870000000
C	  21.0489000000	   6.6382600000	  46.8456000000
C	  22.1072000000	   5.0490200000	  50.2168000000
C	  21.9471000000	   7.8997700000	  46.4782000000
C	  23.4240000000	   4.3930000000	  50.7490000000
C	  22.6472000000	   9.3195800000	  44.7275000000
H	  20.6137000000	   7.0654400000	  48.9972000000
H	  20.0181000000	   5.6062900000	  48.2894000000
H	  22.7927000000	   4.9605300000	  48.0698000000
H	  22.9226000000	   6.3994900000	  48.7839000000
H	  20.0372000000	   6.8818100000	  46.4992000000
H	  21.2669000000	   5.7245900000	  46.2217000000
H	  21.7045000000	   5.8107500000	  50.8531000000
H	  21.2686000000	   4.3586100000	  50.2422000000
H	  22.9734000000	   7.7754300000	  46.8510000000
H	  21.4116000000	   8.6494600000	  47.0795000000
H	  24.3330000000	   5.0457800000	  50.7646000000
H	  23.2622000000	   3.9930300000	  51.7589000000
H	  23.6394000000	   3.4691900000	  50.2065000000
H	  22.6298000000	   9.4201700000	  43.6669000000
H	  22.1303000000	  10.1762000000	  45.1968000000
H	  23.6598000000	   9.4801600000	  45.1092000000
O	  24.0743000000	   6.1999900000	  44.0789000000
C	  26.4839000000	   5.1694900000	  46.7699000000
C	  27.2333000000	   5.9236500000	  47.8706000000
C	  25.5751000000	   6.0655100000	  45.9324000000
C	  26.2909000000	   6.1631200000	  49.0596000000
C	  24.6700000000	   5.2641000000	  44.9747000000
C	  27.0503000000	   6.7864700000	  50.1914000000
C	  24.7708000000	   6.4257900000	  42.8667000000
H	  25.9560000000	   4.3663100000	  47.2188000000
H	  27.1731000000	   4.7700800000	  46.0469000000
H	  28.1228000000	   5.4819500000	  48.2660000000
H	  27.4972000000	   6.8777700000	  47.5086000000
H	  26.3504000000	   6.5333000000	  45.3114000000
H	  25.0417000000	   6.8346600000	  46.5506000000
H	  25.4292000000	   6.7509500000	  48.7998000000
H	  25.9901000000	   5.1998600000	  49.3443000000
H	  23.8784000000	   4.6782100000	  45.4611000000
H	  25.4047000000	   4.5238400000	  44.5242000000
H	  27.4156000000	   7.8058300000	  50.0418000000
H	  26.4502000000	   6.7934700000	  51.1168000000
H	  27.9691000000	   6.3567600000	  50.3626000000
H	  24.1663000000	   6.9841800000	  42.2001000000
H	  25.6850000000	   6.9365000000	  43.0186000000
H	  25.0073000000	   5.4165400000	  42.4346000000
N	  20.7723000000	   3.7704200000	  41.6580000000
S	  21.2583000000	   3.8202000000	  43.1615000000
O	  22.0898000000	   2.7106600000	  43.5127000000
O	  21.5624000000	   5.1070300000	  43.7781000000
C	  19.6158000000	   3.4608000000	  44.0090000000
F	  19.6766000000	   3.5932400000	  45.3008000000
F	  19.1117000000	   2.3310900000	  43.7165000000
F	  18.7175000000	   4.3787300000	  43.6872000000
S	  21.6310000000	   3.7336200000	  40.3942000000
O	  23.0586000000	   3.8732000000	  40.6721000000
O	  21.0098000000	   4.4065600000	  39.3015000000
C	  21.3805000000	   1.9667400000	  40.0047000000
F	  22.0038000000	   1.5881800000	  38.9234000000
F	  21.8803000000	   1.2033700000	  41.0157000000
F	  20.0770000000	   1.6799500000	  39.9064000000
