41

Li	  53.1240000000	  50.8120000000	  58.6288000000
O	  54.9096000000	  51.1434000000	  57.9985000000
C	  55.7661000000	  51.1060000000	  54.3342000000
C	  55.0111000000	  50.9343000000	  53.0192000000
C	  54.9746000000	  51.2826000000	  55.6471000000
C	  54.1213000000	  49.5898000000	  52.9729000000
C	  55.8982000000	  51.1300000000	  56.9173000000
C	  55.0188000000	  48.3573000000	  52.7240000000
C	  55.5619000000	  51.1267000000	  59.2608297015
H	  56.3846000000	  52.0163000000	  54.2099000000
H	  56.4327000000	  50.3184000000	  54.3950000000
H	  54.3679000000	  51.8063000000	  53.0167000000
H	  55.6473000000	  50.9702000000	  52.1848000000
H	  54.3106000000	  50.4355000000	  55.6973000000
H	  54.3431000000	  52.2269000000	  55.7286000000
H	  53.5661000000	  49.4904000000	  53.9068000000
H	  53.4015000000	  49.5559000000	  52.1808000000
H	  56.6475000000	  51.9295000000	  57.1031000000
H	  56.4727000000	  50.1605000000	  56.8042000000
H	  54.4207000000	  47.4636000000	  52.7266000000
H	  55.4256000000	  48.5386000000	  51.7033000000
H	  55.7896000000	  48.2970000000	  53.4079000000
H	  56.3628000000	  51.8351000000	  59.2040497015
H	  54.9400000000	  51.5684000000	  60.0014697015
H	  55.9233000000	  50.1541000000	  59.5941297015
S	  49.4355000000	  38.9238000000	  56.9269000000
S	  50.7598000000	  40.4817000000	  56.1450000000
S	  49.9115000000	  42.3651000000	  56.1993000000
S	  52.0349000000	  47.1818000000	  55.4559000000
S	  52.9098000000	  48.3185000000	  56.9957000000
S	  51.8942000000	  50.2201000000	  57.1016000000
S	  50.7286000000	  45.7652000000	  56.2105000000
S	  51.2794000000	  43.7873000000	  55.6633000000
S	  52.8472000000	  49.5877000000	  60.5851697015
S	  53.8702000000	  48.9385000000	  62.3794097015
S	  54.8763000000	  50.6633000000	  63.1187397015
S	  59.2701860364	  52.6670000000	  64.1508097015
S	  61.0732860364	  52.0116000000	  64.9033797015
S	  61.3540160364	  49.9653000000	  64.2953297015
S	  57.5174000000	  51.8311000000	  65.0414997015
S	  56.7991000000	  50.2583000000	  63.8093097015
