55

Li	  57.0595000000	  41.2135000000	  10.8804000000
O	  58.6232000000	  40.4085000000	  10.4379000000
C	  60.6656860364	  42.5828000000	   9.9956200000
C	  60.7706360364	  44.0414000000	   9.7192000000
C	  59.7418860364	  41.9070000000	   9.0020400000
C	  61.6543360364	  44.8642000000	  10.6782000000
C	  59.4203660364	  40.4094000000	   9.2598800000
C	  62.0673860364	  46.2678000000	  10.1464000000
C	  58.5749000000	  39.1478000000	  10.9735000000
H	  60.3186760364	  42.5069000000	  11.0538000000
H	  61.6701160364	  42.1147000000	   9.8928600000
H	  61.1131960364	  44.1154000000	   8.6818600000
H	  59.7308660364	  44.2662000000	   9.8835600000
H	  60.1043860364	  42.0439000000	   7.9423100000
H	  58.8248000000	  42.5397000000	   9.0341700000
H	  61.3187460364	  44.9349000000	  11.6628000000
H	  62.5716660364	  44.2560000000	  10.7736000000
H	  60.3746160364	  39.8174000000	   9.2211900000
H	  58.6873000000	  39.9997000000	   8.5744100000
H	  61.3754960364	  47.0267000000	  10.5252000000
H	  62.9796460364	  46.5753000000	  10.5967000000
H	  62.1123260364	  46.5241000000	   9.1324600000
H	  57.7619000000	  38.9784000000	  11.7912000000
H	  58.3980000000	  38.4384000000	  10.2094000000
H	  59.5055760364	  38.9681000000	  11.4598000000
N	  54.0713000000	  42.3231000000	   9.1342700000
S	  54.0553000000	  41.0412000000	  10.0308000000
O	  55.3729000000	  40.6388000000	  10.4525000000
O	  53.0854000000	  41.1266000000	  11.0569000000
C	  53.4954000000	  39.7015000000	   8.9122400000
F	  52.3810000000	  40.0439000000	   8.2759800000
F	  53.3331000000	  38.4665000000	   9.3343000000
F	  54.3016000000	  39.6195000000	   7.9001500000
S	  55.1669000000	  43.4597000000	   9.1388000000
O	  56.1962000000	  43.3155000000	  10.0819000000
O	  54.5643000000	  44.7766000000	   9.0412300000
C	  56.1257000000	  43.2468000000	   7.5818800000
F	  57.0459000000	  44.1519000000	   7.3978600000
F	  56.6842000000	  42.0611000000	   7.6502000000
F	  55.2692000000	  43.2801000000	   6.5709300000
N	  55.0241000000	  43.6075000000	  12.8120000000
S	  56.0787000000	  42.6325000000	  13.5268000000
O	  55.7581000000	  42.1655000000	  14.8594000000
O	  56.7094000000	  41.6653000000	  12.6788000000
C	  57.4618000000	  43.8306000000	  13.8482000000
F	  58.4421000000	  43.1709000000	  14.3522000000
F	  57.1494000000	  44.7069000000	  14.8022000000
F	  57.8835000000	  44.5638000000	  12.8026000000
S	  53.5700000000	  43.9784000000	  13.3437000000
O	  53.3636000000	  43.7937000000	  14.7690000000
O	  52.5238000000	  43.4656000000	  12.4679000000
C	  53.6230000000	  45.8212000000	  13.1098000000
F	  54.1692000000	  46.4963000000	  14.1328000000
F	  54.2277000000	  46.2134000000	  12.0069000000
F	  52.3810000000	  46.3179000000	  13.1235000000
