63

Li	  37.0193000000	   1.7516600000	  58.8658000000
O	  37.1277000000	   3.1090400000	  57.4797000000
C	  38.9443000000	   2.0293600000	  54.2609000000
C	  39.9336000000	   0.8344838022	  53.9506000000
C	  38.2968000000	   1.9236700000	  55.6624000000
C	  40.4743000000	   0.9502370000	  52.5871000000
C	  37.4391000000	   3.1605900000	  56.0276000000
C	  41.2477000000	  -0.3048161978	  52.2061000000
C	  36.7910000000	   4.4592600000	  58.0223000000
H	  38.0843000000	   2.1809300000	  53.5398000000
H	  39.5243000000	   2.9507900000	  54.2357000000
H	  40.7600000000	   0.8756838022	  54.6668000000
H	  39.3358000000	  -0.0559161978	  54.0641000000
H	  39.1236000000	   2.0529200000	  56.3925000000
H	  37.7907000000	   0.9904930000	  55.7809000000
H	  39.6574000000	   1.0000300000	  51.8147000000
H	  41.1622000000	   1.7930400000	  52.4156000000
H	  36.6377000000	   3.3106700000	  55.3533000000
H	  38.0631000000	   3.9793000000	  55.8713000000
H	  40.6822000000	  -1.2182161978	  51.9377000000
H	  41.8139000000	  -0.0680161978	  51.2418000000
H	  42.0953000000	  -0.5212161978	  52.8993000000
H	  35.7637000000	   4.5732600000	  57.7873000000
H	  36.7900000000	   4.3513700000	  59.1207297015
H	  37.4845000000	   5.2372800000	  57.6796000000
N	  35.6889000000	  -2.6956161978	  57.7130000000
S	  35.1761000000	  -1.2434161978	  58.2731000000
O	  36.1966000000	  -0.2220161978	  58.3537000000
O	  33.8444000000	  -0.9501161978	  57.7525000000
C	  34.8660000000	  -1.6357161978	  60.0279497015
F	  33.8933000000	  -2.4710161978	  60.1960897015
F	  34.4712000000	  -0.5934161978	  60.7871297015
F	  35.9654000000	  -2.0169161978	  60.6785997015
S	  36.9887000000	  -3.0901161978	  56.8005000000
O	  37.5250000000	  -1.9460161978	  56.0569000000
O	  36.9131000000	  -4.3850161978	  56.1803000000
C	  38.2856000000	  -3.4392161978	  58.0502000000
F	  38.5063000000	  -2.2934161978	  58.7987000000
F	  37.8275000000	  -4.3845161978	  58.8681000000
F	  39.5004000000	  -3.8132161978	  57.6219000000
N	  33.1299000000	   2.9644500000	  57.8846000000
S	  32.8821000000	   2.2239000000	  56.5114000000
O	  33.9984000000	   2.2660400000	  55.6157000000
O	  32.1931000000	   0.9734860000	  56.6826000000
C	  31.7130000000	   3.2330800000	  55.6847000000
F	  31.1830000000	   2.7919000000	  54.5725000000
F	  32.1864000000	   4.4056200000	  55.2225000000
F	  30.7200000000	   3.5245800000	  56.4722000000
S	  33.6343000000	   2.3473800000	  59.3052297015
O	  35.0696000000	   2.1166400000	  59.2981797015
O	  32.7501000000	   1.3448700000	  59.8371497015
C	  33.3957000000	   3.7765900000	  60.4270397015
F	  33.1918000000	   3.3988900000	  61.6499797015
F	  34.5083000000	   4.4903000000	  60.5521297015
F	  32.4256000000	   4.5867600000	  60.1015597015
S	  39.0239000000	   0.9332390000	  59.2252697015
S	  38.2354000000	   2.2906400000	  60.6168697015
S	  38.5830000000	   1.8008300000	  62.6217597015
S	  37.6781000000	  -1.1089161978	  66.5210997015
S	  39.2081000000	  -2.2499161978	  67.4424797015
S	  40.6550000000	  -1.0677161978	  68.4096897015
S	  37.9543000000	  -0.9144161978	  64.5073497015
S	  37.0715000000	   0.7998838022	  63.7598097015
