32

Li	  30.4682000000	  35.3254000000	  14.7721000000
O	  29.3026000000	  34.6887000000	  16.1424000000
O	  27.3465000000	  34.2922000000	  17.1885000000
C	  29.6788000000	  34.1781000000	  17.3503000000
C	  28.4408000000	  34.4135000000	  18.1439000000
C	  27.9998000000	  34.2966000000	  15.9729000000
H	  29.8087000000	  33.1219000000	  17.2077000000
H	  30.4341000000	  34.7365000000	  17.8452000000
H	  28.2705000000	  33.6329000000	  18.9306000000
H	  28.3971000000	  35.3888000000	  18.6251000000
H	  27.4809000000	  34.9779000000	  15.2773000000
H	  27.8005000000	  33.3223000000	  15.6066000000
S	  33.3029000000	  36.3159000000	  14.6433000000
O	  31.8006000000	  36.3766000000	  14.8107000000
C	  33.8037000000	  35.1690000000	  13.2624000000
C	  33.9424000000	  37.9210000000	  14.0912000000
H	  33.7098000000	  35.7062000000	  12.3175000000
H	  34.9087000000	  35.0094000000	  13.4072000000
H	  33.3344000000	  34.1620000000	  13.2843000000
H	  34.9866000000	  37.7884000000	  13.8530000000
H	  33.3768000000	  38.2417000000	  13.2056000000
H	  33.8701000000	  38.6316000000	  14.8312000000
S	  30.3420000000	  32.9906000000	  12.6303000000
O	  30.9613000000	  33.9484000000	  13.6771000000
C	  30.0681000000	  31.2966000000	  13.4496000000
C	  28.5856000000	  33.4002000000	  12.3965000000
H	  29.7822000000	  31.4225000000	  14.4419000000
H	  29.2624000000	  30.8113000000	  12.9647000000
H	  30.9191000000	  30.5842000000	  13.2325000000
H	  28.1886000000	  34.3693000000	  12.0312000000
H	  28.2037000000	  32.7508000000	  11.5913000000
H	  28.0856000000	  33.1536000000	  13.2980000000
