41

Li	  37.6645000000	  50.2957000000	   6.2067600000
S	  35.6180000000	  52.0825000000	   5.2299800000
O	  36.1395000000	  51.1796000000	   6.3797300000
C	  36.8573000000	  52.1394000000	   3.8682200000
C	  34.3811000000	  51.0059000000	   4.4154900000
H	  37.2240000000	  51.1775000000	   3.6975700000
H	  36.3717000000	  52.6225000000	   3.0118100000
H	  37.7027000000	  52.7663000000	   4.1698200000
H	  33.4746000000	  51.0099000000	   5.0768400000
H	  33.9633000000	  51.3948000000	   3.5313200000
H	  34.6654000000	  49.9760000000	   4.3738900000
S	  35.9929000000	  48.0241000000	   8.3360100000
O	  36.8286000000	  48.6469000000	   7.2021000000
C	  34.2677000000	  47.7902000000	   7.7941300000
C	  36.3305000000	  46.2508000000	   8.4719500000
H	  33.7831000000	  47.0817000000	   8.4796000000
H	  33.8303000000	  48.7325000000	   7.7702900000
H	  34.3337000000	  47.4817000000	   6.7641300000
H	  35.7590000000	  45.7422000000	   9.3076100000
H	  36.1660000000	  45.6063000000	   7.5730700000
H	  37.4201000000	  46.1099000000	   8.7183300000
S	  39.5606000000	  48.3707000000	   4.6502300000
O	  38.3007000000	  49.1751000000	   5.0482200000
C	  40.9565000000	  49.1707000000	   5.5164100000
C	  39.3635000000	  46.8215000000	   5.7595700000
H	  40.8513000000	  50.2143000000	   5.3419200000
H	  40.8106000000	  49.1763000000	   6.6035600000
H	  41.9431000000	  48.7378000000	   5.2677200000
H	  38.3764000000	  46.3931000000	   5.5683300000
H	  40.1532000000	  46.0356000000	   5.5444800000
H	  39.3269000000	  47.2267000000	   6.7951300000
S	  39.1889000000	  51.8950000000	   7.9807200000
O	  38.9535000000	  51.5127000000	   6.5667100000
C	  39.2027000000	  50.3176000000	   8.9593000000
C	  40.8962000000	  52.4612000000	   8.2887300000
H	  39.7232000000	  49.5749000000	   8.3759800000
H	  39.7319000000	  50.5604000000	   9.8502500000
H	  38.1872000000	  49.9918000000	   9.2702500000
H	  41.0191000000	  53.1129000000	   7.3749400000
H	  41.0358000000	  53.0180000000	   9.2072700000
H	  41.6039000000	  51.6913000000	   8.1114600000
