31

Li	  22.0443000000	   1.8094500000	  17.6120000000
S	  24.6718000000	   1.7679300000	  19.3238000000
O	  23.2061000000	   2.0184900000	  18.9255000000
C	  25.0115000000	   0.0100959263	  19.1419000000
C	  25.7163000000	   2.4788700000	  17.9065000000
H	  26.0142000000	  -0.2633040737	  19.3743000000
H	  24.5330000000	  -0.5866040737	  19.9134000000
H	  24.8246000000	  -0.2008040737	  18.0639000000
H	  25.5573000000	   3.5020100000	  17.7280000000
H	  26.7147000000	   2.2438400000	  18.1076000000
H	  25.4844000000	   1.9731600000	  17.0068000000
S	  20.0769000000	   3.9501900000	  17.4804000000
O	  21.0434000000	   3.1566300000	  18.3897000000
C	  19.1519000000	   2.8936200000	  16.3079000000
C	  18.5825000000	   4.0642300000	  18.5888000000
H	  18.1998000000	   3.3248000000	  16.0888000000
H	  19.6951000000	   2.8326000000	  15.4153000000
H	  19.0900000000	   1.8933300000	  16.7910000000
H	  18.2602000000	   3.0346200000	  18.8766000000
H	  18.9333000000	   4.5167500000	  19.5713000000
H	  17.6878000000	   4.4420700000	  18.1759000000
S	  20.5675000000	   0.1738959263	  19.6978000000
O	  21.0028000000	   0.4311959263	  18.2404000000
C	  18.7773000000	   0.1839959263	  19.7284000000
C	  20.7162000000	  -1.6503040737	  19.9899000000
H	  18.3059000000	  -0.4544040737	  18.9960000000
H	  18.4460000000	  -0.2833040737	  20.7283000000
H	  18.4579000000	   1.2186300000	  19.6480000000
H	  21.7624000000	  -1.9406040737	  20.2369000000
H	  20.0952000000	  -2.0423040737	  20.7886000000
H	  20.4887000000	  -2.1539040737	  19.0702000000
