51

Li	  15.2433000000	  30.8787000000	  48.5160000000
S	  17.8868000000	  31.3057000000	  46.5406000000
O	  16.6381000000	  30.5504000000	  46.9813000000
C	  17.3224000000	  33.0543000000	  46.6425000000
C	  18.9815000000	  31.1713000000	  47.9502000000
H	  16.8474000000	  33.0979000000	  47.6206000000
H	  18.0733000000	  33.7045000000	  46.4902000000
H	  16.5625000000	  33.2224000000	  45.9036000000
H	  18.4070000000	  31.4316000000	  48.8123000000
H	  19.5429000000	  30.2182000000	  47.9586000000
H	  19.7810000000	  31.9419000000	  47.8198000000
S	  12.7895000000	  29.5002000000	  47.6369000000
O	  14.3155000000	  29.5147000000	  47.7779000000
C	  12.4048000000	  27.7897000000	  47.0185000000
C	  12.3348000000	  29.0150000000	  49.2745000000
H	  12.7520000000	  27.5680000000	  45.9967000000
H	  12.8964000000	  27.0302000000	  47.6609000000
H	  11.3290000000	  27.5615000000	  46.9868000000
H	  11.2389000000	  28.8301000000	  49.4001000000
H	  12.9084000000	  28.1750000000	  49.6715000000
H	  12.4679000000	  29.8798000000	  49.9194000000
S	  17.0650000000	  28.4605000000	  49.8356000000
O	  16.3496000000	  29.8319000000	  49.7964000000
C	  17.6810000000	  28.2575000000	  51.5376000000
C	  15.9185000000	  26.9933000000	  49.7725000000
H	  18.2991000000	  29.1138000000	  51.8624000000
H	  16.9525000000	  28.0101000000	  52.2701000000
H	  18.3361000000	  27.3891000000	  51.6656000000
H	  15.0843000000	  27.1821000000	  50.4124000000
H	  15.4896000000	  26.8097000000	  48.7500000000
H	  16.3491000000	  26.1601000000	  50.2509000000
S	  13.9330000000	  32.7081000000	  50.6707000000
O	  14.5941000000	  31.3831000000	  50.4209000000
C	  13.2801000000	  32.7676000000	  52.4091000000
C	  15.3181000000	  33.9614000000	  50.8335000000
H	  14.0035000000	  32.5832000000	  53.1778000000
H	  12.9917000000	  33.7973000000	  52.5055000000
H	  12.4903000000	  32.0573000000	  52.6181000000
H	  15.0626000000	  35.0660000000	  50.8420000000
H	  15.9731000000	  33.7658000000	  51.6518000000
H	  15.9762000000	  33.8470000000	  50.0293000000
S	  13.6456000000	  33.5158000000	  47.2041000000
O	  14.6059000000	  32.4897000000	  47.8043000000
C	  13.4267000000	  32.9735000000	  45.4450000000
C	  11.9407000000	  33.1274000000	  47.8644000000
H	  12.6028000000	  32.2530000000	  45.3131000000
H	  13.0627000000	  33.8368000000	  44.7731000000
H	  14.3590000000	  32.4993000000	  45.1113000000
H	  11.7458000000	  33.1618000000	  48.9047000000
H	  11.1630000000	  33.7698000000	  47.3791000000
H	  11.8839000000	  32.0882000000	  47.7384000000
