72

Li	  23.7601000000	  51.2854000000	  43.4341000000
O	  24.7796000000	  51.9138000000	  47.2775000000
O	  23.9621000000	  51.7325000000	  45.1880000000
C	  23.4842000000	  52.4754000000	  47.3178000000
C	  23.0021000000	  52.5076000000	  45.9299000000
C	  24.7385000000	  51.1302000000	  46.1893000000
H	  22.7917000000	  51.8447000000	  47.9354000000
H	  23.4339000000	  53.5241000000	  47.6218000000
H	  21.9837000000	  52.2216000000	  45.7280000000
H	  23.0702000000	  53.5318000000	  45.6886000000
H	  25.7701000000	  50.9794000000	  45.8504000000
H	  24.3842000000	  50.1604000000	  46.5128000000
N	  26.1082000000	  49.4236000000	  41.4755000000
S	  25.9335000000	  49.0047000000	  42.9553000000
O	  27.1245000000	  49.1120000000	  43.8140000000
O	  24.7215000000	  49.5152000000	  43.5403000000
C	  25.7975000000	  47.1808000000	  42.8319000000
F	  24.7132000000	  46.8124000000	  42.2183000000
F	  25.8542000000	  46.6746000000	  44.0407000000
F	  26.8044000000	  46.6576000000	  42.1203000000
S	  27.3573000000	  50.1321000000	  40.8289000000
O	  28.6168000000	  50.0456000000	  41.6031000000
O	  26.9886000000	  51.3848000000	  40.1860000000
C	  27.6626000000	  49.0532000000	  39.3772000000
F	  28.6294000000	  49.5251000000	  38.6054000000
F	  28.0013000000	  47.8142000000	  39.7552000000
F	  26.5651000000	  48.9679000000	  38.6525000000
N	  22.3988000000	  53.1226000000	  40.2413000000
S	  23.5511000000	  52.1813000000	  39.9212000000
O	  24.7312000000	  52.8290000000	  39.3811000000
O	  23.7754000000	  51.2444000000	  41.0127000000
C	  22.9328000000	  51.0888000000	  38.5806000000
F	  23.0865000000	  51.6682000000	  37.4070000000
F	  21.6341000000	  50.6755000000	  38.7108000000
F	  23.6635000000	  49.9342000000	  38.5013000000
S	  21.7465000000	  53.3576000000	  41.6350000000
O	  22.5393000000	  52.7973000000	  42.7017000000
O	  20.3277000000	  53.3414000000	  41.7288000000
C	  22.1584000000	  55.1258000000	  41.8856000000
F	  21.3028000000	  55.9953000000	  41.3816000000
F	  22.1741000000	  55.4329000000	  43.1562000000
F	  23.3530000000	  55.3783000000	  41.4740000000
N	  27.8646000000	  53.3304000000	  42.8036000000
S	  26.3158000000	  53.4214000000	  42.8128000000
O	  25.7530000000	  53.9727000000	  41.6109000000
O	  25.7160000000	  52.2195000000	  43.3465000000
C	  26.2322000000	  54.6518000000	  44.0320000000
F	  25.1371000000	  54.7124000000	  44.7573000000
F	  26.4225000000	  55.8542000000	  43.5761000000
F	  27.2703000000	  54.5057000000	  44.8718000000
S	  28.8045000000	  53.6092000000	  41.5623000000
O	  28.0913000000	  53.9758000000	  40.3538000000
O	  29.9019000000	  52.7121000000	  41.4016000000
C	  29.5149000000	  55.1940000000	  42.0958000000
F	  30.3404000000	  55.7775000000	  41.2685000000
F	  28.6321000000	  56.1589000000	  42.4347000000
F	  30.3347000000	  54.9517000000	  43.1298000000
N	  19.9422000000	  49.0922000000	  44.0824000000
S	  20.7003000000	  49.5672000000	  42.7656000000
O	  19.9230000000	  50.4673000000	  41.9446000000
O	  22.0743000000	  50.0180000000	  43.0226000000
C	  20.8643000000	  47.9449000000	  41.8521000000
F	  20.9618000000	  48.1400000000	  40.6078000000
F	  19.8076000000	  47.1909000000	  42.0299000000
F	  21.9197000000	  47.2453000000	  42.2397000000
S	  20.4786000000	  48.9313000000	  45.5171000000
O	  21.7001000000	  49.6073000000	  45.8361000000
O	  20.2677000000	  47.6793000000	  46.1382000000
C	  19.2620000000	  49.9368000000	  46.4140000000
F	  19.4044000000	  49.7595000000	  47.7295000000
F	  19.6304000000	  51.2359000000	  46.2379000000
F	  17.9455000000	  49.8462000000	  46.1062000000
