52

Li	  26.6196000000	  23.5517000000	  22.8904000000
O	  27.6361000000	  23.8649000000	  24.3522000000
C	  28.9896000000	  23.3854000000	  24.5344000000
C	  27.1827000000	  24.7151000000	  25.4204000000
C	  29.0020000000	  22.3518000000	  25.7145000000
C	  29.3505000000	  22.6862000000	  23.1945000000
C	  27.1404000000	  26.1837000000	  24.9801000000
C	  25.8043000000	  24.2246000000	  25.9334000000
H	  29.7726000000	  24.1890000000	  24.5194000000
H	  27.8456000000	  24.7364000000	  26.2276000000
H	  28.6427000000	  22.8405000000	  26.6039000000
H	  28.2432000000	  21.5589000000	  25.5411000000
H	  29.9277000000	  21.8211000000	  25.7777000000
H	  28.6267000000	  21.9311000000	  22.9356000000
H	  29.3834000000	  23.5036000000	  22.4126000000
H	  30.2722000000	  22.1750000000	  23.3164000000
H	  26.6246000000	  26.7928000000	  25.7492000000
H	  28.0623000000	  26.6712000000	  24.9110000000
H	  26.6185000000	  26.4566000000	  24.0293000000
H	  25.0639000000	  24.0127000000	  25.1946000000
H	  25.9611000000	  23.3257000000	  26.4952000000
H	  25.3858000000	  24.9647000000	  26.6095000000
N	  28.3425000000	  23.8669000000	  19.5304000000
S	  27.0384000000	  24.3834000000	  20.1709000000
O	  25.8363000000	  23.6482000000	  19.7418000000
O	  27.1845000000	  24.6240000000	  21.5490000000
C	  26.8916000000	  26.0753000000	  19.4278000000
F	  25.5918000000	  26.4588000000	  19.5255000000
F	  27.2104000000	  26.1988000000	  18.1556000000
F	  27.5534000000	  26.9992000000	  20.0416000000
S	  28.5331000000	  22.7391000000	  18.4733000000
O	  29.2820000000	  23.1522000000	  17.2851000000
O	  27.4529000000	  21.7958000000	  18.3065000000
C	  29.8099000000	  21.7649000000	  19.2425000000
F	  30.8192000000	  22.4432000000	  19.7989000000
F	  29.2347000000	  21.0218000000	  20.1778000000
F	  30.3209000000	  20.9279000000	  18.3170000000
N	  23.9946000000	  21.4664000000	  21.5863000000
S	  25.4377000000	  20.8204000000	  21.5243000000
O	  25.7297000000	  20.3956000000	  20.1865000000
O	  26.4677000000	  21.5101000000	  22.3057000000
C	  25.1944000000	  19.2550000000	  22.4794000000
F	  26.2994000000	  18.5289000000	  22.4801000000
F	  24.2807000000	  18.4044000000	  22.0162000000
F	  24.9811000000	  19.5518000000	  23.7764000000
S	  23.5440000000	  22.8773000000	  22.2197000000
O	  22.5030000000	  23.5944000000	  21.4944000000
O	  24.6500000000	  23.6394000000	  22.6770000000
C	  22.6775000000	  22.3911000000	  23.7539000000
F	  22.0147000000	  23.3417000000	  24.3378000000
F	  21.7816000000	  21.4695000000	  23.4648000000
F	  23.4757000000	  21.9216000000	  24.6728000000
