59

Li	  22.7183000000	  12.5159000000	  41.1391000000
O	  21.0628000000	   8.7663700000	  41.4552000000
O	  22.0656000000	  10.8042000000	  41.7317000000
C	  22.2627000000	   8.6629100000	  40.7434000000
C	  22.9518000000	   9.9984600000	  40.9191000000
C	  21.2773000000	   9.8051100000	  42.3735000000
H	  22.9346000000	   7.9709100000	  41.2406000000
H	  21.9979000000	   8.4656700000	  39.6885000000
H	  23.9413000000	   9.7963700000	  41.3879000000
H	  23.1884000000	  10.4249000000	  39.9311000000
H	  20.2943000000	  10.2657000000	  42.5126000000
H	  21.6649000000	   9.4760000000	  43.3643000000
O	  22.1173000000	  14.0507000000	  41.9437000000
O	  21.2130000000	  15.9300000000	  42.7533000000
C	  20.9849000000	  13.6290000000	  42.6665000000
C	  20.6890000000	  14.8844000000	  43.5776000000
C	  22.3704000000	  15.4095000000	  42.1711000000
H	  20.1145000000	  13.6094000000	  41.9266000000
H	  21.0758000000	  12.6320000000	  43.1909000000
H	  19.6006000000	  14.9427000000	  43.8969000000
H	  21.3569000000	  14.8430000000	  44.5095000000
H	  23.2754000000	  15.5735000000	  42.7339000000
H	  22.3604000000	  16.0633000000	  41.2772000000
O	  23.4770000000	  12.8593000000	  39.4026000000
C	  22.6603000000	  13.0648000000	  38.2821000000
C	  24.8312000000	  13.1705000000	  39.3300000000
C	  22.6223000000	  11.7249000000	  37.4033000000
C	  21.2637000000	  13.3646000000	  38.8068000000
C	  25.2983000000	  14.2268000000	  40.2569000000
C	  25.5129000000	  11.8300000000	  39.7354000000
H	  22.9357000000	  13.9514000000	  37.7048000000
H	  25.1292000000	  13.4175000000	  38.2930000000
H	  22.2113000000	  10.8359000000	  37.8619000000
H	  22.1115000000	  11.9379000000	  36.4570000000
H	  23.6092000000	  11.4602000000	  37.0541000000
H	  20.6021000000	  13.3118000000	  37.9987000000
H	  20.7802000000	  12.7336000000	  39.5206000000
H	  21.2771000000	  14.4471000000	  39.1692000000
H	  24.6569000000	  15.1047000000	  40.1378000000
H	  25.4558000000	  13.9085000000	  41.3115000000
H	  26.3053000000	  14.5222000000	  39.9356000000
H	  26.6205000000	  11.8431000000	  39.8996000000
H	  25.1633000000	  11.3926000000	  40.7111000000
H	  25.3687000000	  11.0702000000	  38.9849000000
N	  24.6085000000	  10.5869000000	  44.5376000000
S	  25.2303000000	   9.1178000000	  44.3736000000
O	  24.1508000000	   8.0974600000	  44.2840000000
O	  26.3227000000	   8.9976100000	  43.3979000000
C	  25.9097000000	   8.7522600000	  46.0923000000
F	  27.0480000000	   9.4141500000	  46.3327000000
F	  26.1657000000	   7.4544500000	  46.1036000000
F	  25.1259000000	   9.0212500000	  47.1801000000
S	  24.9133000000	  11.9632000000	  43.7883000000
O	  23.9872000000	  12.4159000000	  42.7759000000
O	  26.3382000000	  12.1296000000	  43.5824000000
C	  24.5673000000	  13.2127000000	  45.0477000000
F	  23.3154000000	  13.0850000000	  45.4512000000
F	  25.3658000000	  13.1035000000	  46.1375000000
F	  24.7233000000	  14.4998000000	  44.7517000000
