42

Li	  45.0567000000	  36.0817000000	  10.6689000000
O	  46.5495000000	  39.3928000000	  13.0952000000
O	  45.8823000000	  37.8129000000	  11.5429000000
C	  47.5277000000	  38.4033000000	  12.9550000000
C	  47.2828000000	  37.6744000000	  11.5786000000
C	  45.6635000000	  39.0682000000	  12.0620000000
H	  48.5636000000	  38.8513000000	  12.9433000000
H	  47.4781000000	  37.6464000000	  13.7995000000
H	  47.6989000000	  38.1961000000	  10.7015000000
H	  47.6355000000	  36.6259000000	  11.4352000000
H	  44.6964000000	  39.0011000000	  12.4488000000
H	  45.6790000000	  39.8491000000	  11.2909000000
N	  43.7129000000	  34.2831000000	  13.3688000000
S	  45.2038000000	  33.9124000000	  12.9065000000
O	  45.4350000000	  32.4901000000	  12.8419000000
O	  45.6540000000	  34.7845000000	  11.8556000000
C	  46.2076000000	  34.4350000000	  14.2390000000
F	  46.0742000000	  35.7171000000	  14.5762000000
F	  47.5509000000	  34.3048000000	  13.8679000000
F	  46.0060000000	  33.7735000000	  15.3732000000
S	  42.7120000000	  35.3597000000	  12.7582000000
O	  43.1364000000	  36.0114000000	  11.5313000000
O	  41.9734000000	  36.1921000000	  13.6920000000
C	  41.3623000000	  34.2447000000	  12.1069000000
F	  40.6320000000	  33.6023000000	  13.0062000000
F	  40.4872000000	  34.9229000000	  11.3870000000
F	  41.8912000000	  33.2524000000	  11.3192000000
N	  45.6658000000	  34.8003000000	   7.3905100000
S	  46.5818000000	  36.0653000000	   7.6952100000
O	  46.8418000000	  36.8764000000	   6.5137600000
O	  46.2665000000	  36.7083000000	   8.9517100000
C	  48.2195000000	  35.2876000000	   7.8909700000
F	  49.1190000000	  36.1986000000	   7.7401700000
F	  48.4752000000	  34.4108000000	   6.9616400000
F	  48.4077000000	  34.7857000000	   9.0686500000
S	  44.5182000000	  34.1546000000	   8.2158400000
O	  43.3953000000	  33.8116000000	   7.3825300000
O	  44.2923000000	  34.8172000000	   9.4717300000
C	  45.2827000000	  32.5871000000	   8.7085900000
F	  45.6188000000	  31.8626000000	   7.6283000000
F	  46.4120000000	  32.7226000000	   9.4519100000
F	  44.3571000000	  31.8773000000	   9.3917100000
