46

Li	  19.6521000000	  57.5731000000	  23.8778000000
O	  19.9874000000	  58.5053000000	  19.6294000000
O	  20.0935000000	  57.8980000000	  21.8799000000
C	  21.0028000000	  57.5910000000	  19.8122000000
C	  21.2535000000	  57.4804000000	  21.3079000000
C	  19.6698000000	  58.8442000000	  20.9781000000
H	  20.7716000000	  56.6742000000	  19.1940000000
H	  21.8861000000	  58.0576000000	  19.2256000000
H	  21.5658000000	  56.5105000000	  21.6474000000
H	  22.1427000000	  58.0728000000	  21.5429000000
H	  20.1031000000	  59.8303036180	  21.2094000000
H	  18.5337000000	  58.9771236180	  20.9930000000
O	  18.1935000000	  57.3914000000	  25.3524000000
O	  17.3932000000	  55.9336000000	  26.7537000000
C	  18.1073000000	  57.9619000000	  26.6696000000
C	  18.0704000000	  56.7933000000	  27.5412000000
C	  17.4969000000	  56.2275000000	  25.4413000000
H	  18.9434000000	  58.5559000000	  26.8556000000
H	  17.1663000000	  58.4980000000	  26.8156000000
H	  19.1011000000	  56.4016000000	  27.6771000000
H	  17.7372000000	  56.9427000000	  28.6387000000
H	  16.5006000000	  56.2835000000	  25.0327000000
H	  18.0154000000	  55.4775000000	  24.8875000000
N	  16.8025000000	  60.5231136180	  23.4014000000
S	  18.3597000000	  60.6478436180	  23.6252000000
O	  19.0828000000	  59.4345836180	  23.9578000000
O	  18.9620000000	  61.5346636180	  22.6531000000
C	  18.4208000000	  61.5521636180	  25.2586000000
F	  17.7288000000	  62.7039436180	  25.1670000000
F	  19.6145000000	  61.7979436180	  25.6582000000
F	  17.8639000000	  60.8854236180	  26.2617000000
S	  16.0627000000	  59.1489536180	  23.1789000000
O	  15.3270000000	  58.7498000000	  24.3674000000
O	  16.8173000000	  58.1180000000	  22.5190000000
C	  14.7600000000	  59.4677636180	  21.9333000000
F	  14.0641000000	  60.5165136180	  22.3022000000
F	  15.2494000000	  59.7607736180	  20.7533000000
F	  13.8595000000	  58.4894000000	  21.7897000000
S	  20.9696000000	  55.8825000000	  24.2985000000
S	  22.5268000000	  57.2727000000	  24.5650000000
S	  21.8679000000	  58.7497000000	  26.0104000000
S	  21.8383000000	  56.0040000000	  30.6264000000
S	  22.2638000000	  56.5365000000	  32.6571000000
S	  24.1400000000	  55.7148000000	  33.1218000000
S	  21.0765000000	  57.4510000000	  29.2485000000
S	  22.5123000000	  58.4551000000	  28.0818000000
