46

Li	  23.6426000000	  53.0774000000	  48.6174000000
O	  27.7655000000	  52.9116000000	  47.1666000000
O	  25.6636000000	  52.6013000000	  47.7500000000
C	  27.5089000000	  51.5211000000	  47.1585000000
C	  26.0618000000	  51.5979000000	  46.8016000000
C	  26.6053000000	  53.5866000000	  47.6329000000
H	  28.1336000000	  50.9811000000	  46.4587000000
H	  27.5560000000	  51.1629000000	  48.1542000000
H	  25.9092000000	  51.9803000000	  45.8037000000
H	  25.4197000000	  50.7230000000	  46.8964000000
H	  26.7995000000	  53.9610000000	  48.6414000000
H	  26.1727000000	  54.4258000000	  47.0437000000
O	  23.2139000000	  51.3505000000	  48.3171000000
O	  23.1336000000	  49.0368000000	  48.4543000000
C	  22.5014000000	  50.8575000000	  47.2153000000
C	  22.9995000000	  49.4244000000	  47.1207000000
C	  23.4877000000	  50.2505000000	  49.1536000000
H	  21.4459000000	  50.7812000000	  47.4119000000
H	  22.4667000000	  51.4663000000	  46.2853000000
H	  22.3470000000	  48.6869000000	  46.6727000000
H	  23.9679000000	  49.3483000000	  46.5950000000
H	  24.5618000000	  50.0851000000	  49.3760000000
H	  22.9820000000	  50.2115000000	  50.1108000000
N	  24.7602000000	  51.0878000000	  52.2793000000
S	  23.9536000000	  50.4117000000	  53.5045000000
O	  23.9937000000	  51.1419000000	  54.7179000000
O	  22.6892000000	  49.8059000000	  53.1637000000
C	  24.9452000000	  49.0727000000	  53.9619000000
F	  24.4461000000	  48.5747000000	  55.0994000000
F	  26.1945000000	  49.3638000000	  54.1947000000
F	  24.9669000000	  48.0918000000	  53.0774000000
S	  24.8344000000	  52.5760000000	  51.9620000000
O	  24.5511000000	  53.4835000000	  53.0430000000
O	  24.3061000000	  52.7690000000	  50.6412000000
C	  26.5658000000	  52.9347000000	  51.6748000000
F	  27.4071000000	  52.6047000000	  52.6440000000
F	  27.0408000000	  52.3447000000	  50.6138000000
F	  26.7090000000	  54.2781000000	  51.5003000000
S	  20.7588000000	  49.1355000000	  55.9179000000
S	  20.5940000000	  51.2698000000	  55.9842000000
S	  19.7113000000	  52.0500000000	  54.2148000000
S	  20.7988000000	  54.3352000000	  49.9378000000
S	  22.5688000000	  55.0369000000	  48.9914000000
S	  22.7888000000	  54.3438000000	  46.9488000000
S	  21.1373000000	  52.5943000000	  50.9413000000
S	  21.2816000000	  52.9015000000	  53.0698000000
