45

Li	  31.3208000000	  25.0068000000	  11.6019000000
O	  32.4511000000	  24.5433000000	  13.0215000000
C	  32.1420000000	  25.3472000000	  14.2232000000
C	  33.6758000000	  23.7838000000	  13.0624000000
C	  31.4404000000	  26.4871000000	  13.5263000000
C	  31.2784000000	  24.4945000000	  15.0740000000
C	  33.5195000000	  22.3660000000	  12.5340000000
C	  34.7385000000	  24.6765000000	  12.3245000000
H	  33.0448000000	  25.6995000000	  14.8654000000
H	  34.0458000000	  23.6493000000	  14.1150000000
H	  30.5448000000	  26.2455000000	  13.0389000000
H	  31.0772000000	  27.2584000000	  14.2105000000
H	  32.1066000000	  27.0416000000	  12.8695000000
H	  30.9551000000	  24.8760000000	  16.0382000000
H	  30.3081000000	  24.1277000000	  14.6098000000
H	  31.9353000000	  23.6547000000	  15.1488000000
H	  34.4838000000	  21.8927000000	  12.4472000000
H	  32.8090000000	  21.7782000000	  13.0661000000
H	  33.0715000000	  22.3441000000	  11.5173000000
H	  34.5620000000	  25.6776000000	  12.8370000000
H	  35.7353000000	  24.2933000000	  12.4085000000
H	  34.5059000000	  24.8344000000	  11.2971000000
N	  27.8555000000	  25.8464000000	  11.0286000000
S	  28.1781000000	  24.5776000000	  11.8938000000
O	  29.5590000000	  24.2105000000	  12.0370000000
O	  27.2721000000	  24.3479000000	  13.0171000000
C	  27.6568000000	  23.3152000000	  10.7196000000
F	  26.3628000000	  23.4770000000	  10.4578000000
F	  27.8760000000	  22.0557000000	  11.1695000000
F	  28.2647000000	  23.5253000000	   9.5541300000
S	  27.4790000000	  27.3178000000	  11.5518000000
O	  27.9165000000	  28.3334000000	  10.6341000000
O	  27.6397000000	  27.5687000000	  12.9254000000
C	  25.6008000000	  27.4752000000	  11.2176000000
F	  25.1686000000	  28.7069000000	  11.4371000000
F	  25.2516000000	  27.2054000000	  10.0030000000
F	  24.8657000000	  26.7312000000	  11.9738000000
S	  39.3658000000	  21.6555000000	  11.1936000000
S	  37.4152000000	  21.7316000000	  11.7179000000
S	  36.2059000000	  20.2987000000	  10.7201000000
S	  33.3828000000	  23.6615000000	   8.2470500000
S	  31.7006000000	  24.2586000000	   9.3327500000
S	  31.7689000000	  26.2698000000	  10.0409000000
S	  33.5715000000	  21.5729000000	   8.7073700000
S	  35.5762000000	  20.8865000000	   8.7700700000
