56

Li	  57.5016000000	  22.1182000000	   8.7234400000
O	  57.6514000000	  20.6896000000	   4.8505800000
O	  57.5128000000	  21.6056000000	   6.8967700000
C	  57.1575000000	  21.9694000000	   4.5589600000
C	  57.6115000000	  22.5988000000	   5.8655300000
C	  57.3749000000	  20.4353000000	   6.1975100000
H	  57.4894000000	  22.3827000000	   3.6440800000
H	  56.0841000000	  21.9765000000	   4.4622200000
H	  58.6450000000	  22.9183000000	   5.7028000000
H	  57.1691000000	  23.5567000000	   6.1057000000
H	  56.2727000000	  20.0608000000	   6.2564000000
H	  58.1104000000	  19.6743000000	   6.5486800000
O	  59.0343373610	  22.2707000000	   9.9053400000
C	  58.9835773610	  22.5462000000	  11.3391000000
C	  60.2089573610	  22.7043000000	   9.2211400000
C	  59.0210773610	  24.0596000000	  11.7628000000
C	  57.9200000000	  21.7548000000	  12.1137000000
C	  60.7418173610	  21.4179000000	   8.5008200000
C	  59.9780773610	  24.0476000000	   8.4656300000
H	  59.9117273610	  22.2900000000	  11.7841000000
H	  61.0864573610	  22.8941000000	   9.8753800000
H	  57.9691000000	  24.4119000000	  11.7405000000
H	  59.4878573610	  24.1797000000	  12.6810000000
H	  59.6469173610	  24.7482000000	  11.1568000000
H	  58.1352000000	  20.6952000000	  12.1061000000
H	  57.8442000000	  22.0388000000	  13.1766000000
H	  56.9268000000	  21.9734000000	  11.7283000000
H	  61.2485773610	  20.8331000000	   9.2726800000
H	  59.9665173610	  20.8301000000	   7.9896400000
H	  61.4940373610	  21.6845000000	   7.7011300000
H	  59.1589973610	  23.9790000000	   7.7468200000
H	  59.7635073610	  24.8484000000	   9.1795200000
H	  60.8667573610	  24.1135000000	   7.8730200000
N	  54.3115000000	  20.3718000000	  10.2161000000
S	  55.6678000000	  19.6668000000	  10.2752000000
O	  56.7026000000	  20.4143000000	   9.5753500000
O	  56.0210000000	  18.9133000000	  11.4793000000
C	  55.2751000000	  18.3464000000	   9.0505000000
F	  54.4014000000	  17.4939000000	   9.5667200000
F	  56.2980000000	  17.5802000000	   8.6637300000
F	  54.6769000000	  18.8351000000	   7.9766000000
S	  53.7595000000	  21.2948000000	  11.3506000000
O	  53.2222000000	  22.5454000000	  10.9478000000
O	  54.4064000000	  21.2480000000	  12.6197000000
C	  52.2297000000	  20.4342000000	  11.5406000000
F	  51.3184000000	  20.6882000000	  10.5977000000
F	  52.3559000000	  19.0849000000	  11.6829000000
F	  51.5533000000	  20.8198000000	  12.6606000000
S	  54.2586000000	  33.4157000000	  13.7083000000
S	  55.1347000000	  31.4547000000	  14.1021000000
S	  54.6618000000	  30.0772000000	  12.6072000000
S	  55.0684000000	  24.9214000000	  11.8016000000
S	  56.0891000000	  24.9728000000	   9.9907600000
S	  55.7238000000	  23.1416000000	   8.9334700000
S	  55.6558000000	  26.6952000000	  12.8523000000
S	  54.0630000000	  28.1111000000	  13.0998000000
