38

Li	   8.0524300000	  46.3569000000	  40.9124000000
O	   8.3477900000	  47.8955000000	  41.7348000000
C	   9.1106700000	  47.8063000000	  42.9746000000
C	   7.6992600000	  49.1063000000	  41.3567000000
C	   8.8761700000	  46.3671000000	  43.3854000000
C	  10.5948000000	  48.2401000000	  42.7928000000
C	   7.6362300000	  49.2381000000	  39.9064000000
C	   6.3652000000	  49.2135000000	  42.0494000000
H	   8.7217100000	  48.5607000000	  43.5826000000
H	   8.3508700000	  49.8057000000	  41.7723000000
H	   7.8194000000	  46.3223000000	  43.8049000000
H	   9.1163900000	  45.6524000000	  42.5784000000
H	   9.4490300000	  46.1457000000	  44.2834000000
H	  10.7414000000	  49.2491000000	  42.3530000000
H	  11.0322000000	  48.2227000000	  43.7720000000
H	  11.1556000000	  47.5820000000	  42.2232000000
H	   6.8008500000	  48.6813000000	  39.4448000000
H	   7.6472900000	  50.3281000000	  39.7652000000
H	   8.4541200000	  48.6993000000	  39.5284000000
H	   5.5481500000	  48.6993000000	  41.5001000000
H	   6.3248400000	  48.9016000000	  43.0988000000
H	   5.9343900000	  50.1752000000	  42.0370000000
S	   5.9295800000	  45.7911000000	  40.9812000000
S	   4.7249800000	  45.0100000000	  42.6242000000
S	   3.7304700000	  43.2365000000	  42.0803000000
S	   0.4113526390	  41.8535000000	  38.9518000000
S	   1.7459900000	  40.6965000000	  37.8988000000
S	   1.5402200000	  40.4812000000	  35.7933000000
S	   1.4237500000	  43.5393000000	  39.6030000000
S	   1.6617800000	  43.5659000000	  41.7118000000
S	   9.4153000000	  45.3092000000	  39.7313000000
S	   8.2804700000	  43.4807000000	  39.9919000000
S	   8.4417400000	  42.5692000000	  41.8630000000
S	   6.1725800000	  37.5761000000	  42.4649000000
S	   6.8661500000	  35.6557000000	  43.0363000000
S	   7.5210000000	  34.7153000000	  41.3649000000
S	   7.6261500000	  39.0978000000	  42.4675000000
S	   6.9148500000	  41.1146000000	  42.2030000000
