38

Li	  16.3028000000	  43.8469000000	  56.6486000000
O	  14.4296000000	  43.5697000000	  56.9699000000
O	  12.3880000000	  42.5581000000	  57.2187000000
C	  13.4214000000	  44.4897000000	  56.5729000000
C	  12.2433000000	  43.5822000000	  56.2983000000
C	  13.7128000000	  42.5183000000	  57.5992000000
H	  13.2750000000	  45.2723000000	  57.3647000000
H	  13.6047000000	  44.9395000000	  55.6449000000
H	  11.2927000000	  44.0354000000	  56.3817000000
H	  12.3904000000	  43.2179000000	  55.2275000000
H	  14.2179000000	  41.6188000000	  57.3719000000
H	  13.8655000000	  42.7516000000	  58.6849000000
O	  16.0362000000	  45.7568000000	  53.0040000000
O	  15.9902000000	  44.5941000000	  54.8887000000
C	  16.1994000000	  44.4420000000	  52.5494000000
C	  16.4896000000	  43.7198000000	  53.8794000000
C	  16.2044000000	  45.8443000000	  54.3862000000
H	  15.2528000000	  44.0509000000	  52.1223000000
H	  17.0760000000	  44.2246000000	  51.9395000000
H	  15.9806000000	  42.7448000000	  53.9667000000
H	  17.5506000000	  43.5903000000	  53.8653000000
H	  17.2562000000	  46.0364000000	  54.6543000000
H	  15.7229000000	  46.5508000000	  55.0326000000
N	  17.3965000000	  40.3597000000	  58.1968000000
S	  17.9659000000	  40.9258000000	  56.8908000000
O	  17.2014000000	  42.0996000000	  56.3916000000
O	  19.3641000000	  40.8982000000	  56.7859000000
C	  17.3752000000	  39.6025000000	  55.7408000000
F	  17.8055000000	  39.6904000000	  54.4685000000
F	  16.0528000000	  39.5266000000	  55.7368000000
F	  17.7746000000	  38.4179000000	  56.1896000000
S	  16.5765000000	  41.1158000000	  59.2750559373
O	  15.3992000000	  40.3553000000	  59.7306759373
O	  16.3115000000	  42.5290000000	  58.9976259373
C	  17.6710000000	  41.0699000000	  60.7510859373
F	  17.0466000000	  41.6627000000	  61.7379459373
F	  17.9522000000	  39.9186000000	  61.1648059373
F	  18.7952000000	  41.7069000000	  60.5853359373
