32

Li	  44.7217000000	  45.1305000000	  27.3907000000
N	  47.2158000000	  44.0418000000	  30.4640000000
S	  48.3754000000	  43.4243000000	  31.4239000000
O	  48.3256000000	  41.9843000000	  31.5427000000
O	  49.7092000000	  44.0194000000	  31.3968000000
C	  47.8403000000	  43.8661000000	  33.0839000000
F	  47.7135000000	  45.1962000000	  33.0920000000
F	  48.8270000000	  43.5673000000	  34.0133000000
F	  46.7448000000	  43.3072000000	  33.4564000000
S	  47.3976000000	  45.1394000000	  29.3323000000
O	  46.4642000000	  44.9734000000	  28.2351000000
O	  48.7642000000	  45.5714000000	  29.0479000000
C	  46.6521000000	  46.7618000000	  30.2011000000
F	  46.5722000000	  47.8033000000	  29.3889000000
F	  45.4463000000	  46.5781000000	  30.5019000000
F	  47.3178000000	  47.1196000000	  31.3072000000
S	  48.1100000000	  46.2333000000	  17.8763000000
S	  46.5854000000	  44.7130000000	  18.2184000000
S	  46.4164000000	  44.3514000000	  20.2904000000
S	  45.2913000000	  45.2095000000	  24.5831000000
S	  43.5631000000	  46.0857000000	  25.4253000000
S	  43.8728000000	  47.0975000000	  27.2176000000
S	  45.8185000000	  46.3393000000	  22.9535000000
S	  44.9879000000	  45.5812000000	  21.1983000000
S	  51.4286000000	  46.6253000000	  27.5061000000
S	  51.9914000000	  44.6909000000	  28.3610000000
S	  51.0161000000	  43.0588000000	  27.4452000000
S	  46.6570000000	  40.8025000000	  28.2455000000
S	  45.0707000000	  41.5408000000	  26.9512000000
S	  43.9861000000	  43.2047000000	  27.7160000000
S	  48.5413000000	  40.7038000000	  27.4329000000
S	  49.7234000000	  41.9510000000	  28.6228000000
