24

Li	  48.5631000000	  48.5544000000	  17.9396000000
N	  47.4060000000	  51.2846000000	  19.2938000000
S	  48.9639000000	  51.2530000000	  19.2845000000
O	  49.4464000000	  49.9339000000	  18.8755000000
O	  49.5906000000	  52.4099000000	  18.6679000000
C	  49.3309000000	  51.4259000000	  21.0754000000
F	  50.5440000000	  50.9973000000	  21.3161000000
F	  48.6607000000	  50.5830000000	  21.8640000000
F	  49.1304000000	  52.6379000000	  21.6161000000
S	  46.4605000000	  50.1516000000	  18.7447000000
O	  46.8783000000	  48.8185000000	  19.2190000000
O	  46.0957000000	  50.3055000000	  17.3692000000
C	  44.9898000000	  50.5360000000	  19.6837000000
F	  44.6234000000	  51.7572000000	  19.4437000000
F	  43.9250000000	  49.7293000000	  19.4775000000
F	  45.2015000000	  50.6081000000	  21.0009000000
S	  48.6568000000	  49.2649000000	  15.8999000000
S	  49.0803000000	  47.1199000000	  15.9800000000
S	  50.2841000000	  46.5928000000	  17.5596000000
S	  47.8226000000	  46.2907000000	  22.5020000000
S	  48.0230000000	  47.4279000000	  24.2870000000
S	  46.6929000000	  46.9005000000	  25.8586000000
S	  49.0126000000	  47.1109000000	  20.8584000000
S	  48.8650000000	  45.9977000000	  19.0080000000
