55

Li	  41.1738000000	  28.9968000000	  23.7207000000
O	  41.2621000000	  30.0294000000	  19.7431000000
O	  41.7070000000	  30.0982000000	  21.8755000000
C	  40.8203000000	  31.3461000000	  19.9753000000
C	  41.0188000000	  31.3163000000	  21.5314000000
C	  42.2565000000	  29.7905000000	  20.6481000000
H	  41.5455000000	  32.0470000000	  19.4524000000
H	  39.7698000000	  31.3711000000	  19.6687000000
H	  41.7271000000	  32.1787000000	  21.7169000000
H	  40.0743000000	  31.3170000000	  22.0436000000
H	  42.4847000000	  28.7579000000	  20.6494000000
H	  43.1753000000	  30.4023000000	  20.3516000000
O	  39.8713000000	  29.7622000000	  24.8326000000
O	  38.7955000000	  31.0088000000	  26.4266000000
C	  38.4759000000	  29.6086000000	  24.6195000000
C	  37.7649000000	  30.6490000000	  25.4993000000
C	  39.9487000000	  30.8549000000	  25.6839000000
H	  38.2157000000	  29.6430000000	  23.5699000000
H	  38.2866000000	  28.5886000000	  24.9771000000
H	  37.4346000000	  31.4431000000	  24.8926000000
H	  36.8978000000	  30.3380000000	  26.0658000000
H	  40.6740000000	  30.6869000000	  26.4326000000
H	  40.0893000000	  31.7840000000	  25.1307000000
O	  39.7951000000	  25.6877000000	  21.5012000000
O	  40.0960000000	  27.5060000000	  22.7529000000
C	  39.4037000000	  26.7965000000	  20.7298000000
C	  39.1319000000	  27.8227000000	  21.7330000000
C	  40.1296000000	  26.1571000000	  22.7320000000
H	  40.3596000000	  26.9606000000	  20.2467000000
H	  38.6596000000	  26.5111000000	  19.9655000000
H	  39.1670000000	  28.8702000000	  21.5193000000
H	  38.1123000000	  27.5397000000	  22.1626000000
H	  39.5127000000	  25.8118000000	  23.5093000000
H	  41.1119000000	  25.7425000000	  22.9171000000
O	  41.9867000000	  27.8600000000	  24.9910000000
C	  41.8369000000	  27.0994000000	  26.2115000000
C	  43.3658000000	  28.1224000000	  24.7215000000
C	  40.3995000000	  27.0941000000	  26.6670000000
C	  42.3059000000	  25.5809000000	  26.0517000000
C	  43.7673000000	  27.6090000000	  23.3167000000
C	  43.5577000000	  29.5980000000	  24.9008000000
H	  42.4577000000	  27.6074000000	  27.0277000000
H	  44.0734000000	  27.6652000000	  25.4084000000
H	  40.1825000000	  28.1260000000	  26.9594000000
H	  39.7061000000	  26.8301000000	  25.8380000000
H	  40.1731000000	  26.4594000000	  27.5377000000
H	  41.7645000000	  24.9981000000	  25.3655000000
H	  43.2939000000	  25.3974000000	  25.6265000000
H	  42.0772000000	  25.0366000000	  27.0009000000
H	  44.7966000000	  27.6916000000	  23.0226000000
H	  43.4763000000	  26.5630000000	  23.2454000000
H	  43.1454000000	  28.1509000000	  22.5957000000
H	  43.3705000000	  29.9533000000	  25.9127000000
H	  44.6048000000	  29.9262000000	  24.7063000000
H	  42.9508000000	  30.1590000000	  24.2069000000
