42

Li	  43.2527000000	  29.0107000000	  16.7007000000
O	  43.2564000000	  30.9029000000	  17.2118000000
O	  41.7520000000	  32.4192000000	  17.7669000000
C	  43.7705000000	  31.6460000000	  18.2852000000
C	  42.9692000000	  32.8541000000	  18.3206000000
C	  42.2100000000	  31.6538000000	  16.7431000000
H	  43.6478000000	  31.0805000000	  19.2323000000
H	  44.8564000000	  31.9077000000	  18.1420000000
H	  42.7194000000	  32.9440000000	  19.3843000000
H	  43.3714000000	  33.7133000000	  17.7962000000
H	  42.6482000000	  32.2208000000	  15.9379000000
H	  41.3484000000	  30.9464000000	  16.4233000000
O	  41.5618000000	  28.3485000000	  17.5583000000
O	  40.8509000000	  27.3071000000	  19.4153000000
C	  40.6942000000	  27.3809000000	  17.0290000000
C	  40.6184000000	  26.4385000000	  18.2802000000
C	  41.0943000000	  28.5577000000	  18.8165000000
H	  39.7105000000	  27.7878000000	  16.7520000000
H	  40.9524000000	  26.7075000000	  16.2381000000
H	  39.7250000000	  25.8671000000	  18.2668000000
H	  41.5207000000	  25.8253000000	  18.3792000000
H	  41.7818000000	  29.1574000000	  19.4150000000
H	  40.2064000000	  29.2217000000	  18.6674000000
O	  43.9127000000	  29.0757000000	  12.8890000000
O	  42.9953000000	  29.5650000000	  14.8391000000
C	  42.8956000000	  28.1027000000	  13.1412000000
C	  42.0574000000	  28.8426000000	  14.0822000000
C	  43.9711000000	  29.9775000000	  13.9768000000
H	  42.3336000000	  27.7903000000	  12.2178000000
H	  43.4113000000	  27.2763000000	  13.5214000000
H	  41.5708000000	  29.5620000000	  13.5052000000
H	  41.2789000000	  28.1772000000	  14.5197000000
H	  44.9453000000	  30.1319000000	  14.3473000000
H	  43.5439000000	  30.8797000000	  13.5160000000
S	  44.5283000000	  27.3157000000	  17.1946000000
S	  45.5443000000	  29.0710000000	  16.8289000000
S	  47.3477000000	  28.6909000000	  15.7839000000
S	  51.0270000000	  30.7786000000	  14.1282000000
S	  51.6863000000	  32.2352000000	  12.7902000000
S	  52.3069000000	  31.3809000000	  10.9818000000
S	  49.5457000000	  31.3883000000	  15.4852000000
S	  48.9013000000	  29.7444000000	  16.7558000000
