64

Li	  19.3734000000	  53.0322000000	  46.5174000000
O	  17.4212000000	  52.6013000000	  46.5041000000
O	  15.2857000000	  53.1294000000	  45.8471000000
C	  16.5130000000	  52.0986000000	  47.4617000000
C	  15.1908000000	  51.9564000000	  46.6344000000
C	  16.6723000000	  53.1122000000	  45.4721000000
H	  16.7210000000	  51.0760000000	  47.8853000000
H	  16.4218000000	  52.8818000000	  48.2458000000
H	  15.3481000000	  51.0509000000	  45.9895000000
H	  14.3575000000	  51.8100000000	  47.3425000000
H	  17.0505000000	  54.1425000000	  45.1397000000
H	  16.7512000000	  52.4441000000	  44.5646000000
O	  17.6575000000	  55.8841000000	  48.6610000000
O	  19.1342000000	  54.3334000000	  48.0114000000
C	  18.1242000000	  55.2711000000	  49.9016000000
C	  18.9808000000	  54.1201000000	  49.4570000000
C	  18.5445000000	  55.5562000000	  47.7346000000
H	  18.6444000000	  56.0605000000	  50.4313000000
H	  17.2724000000	  54.9719000000	  50.4968000000
H	  19.9100000000	  54.0821000000	  50.0285000000
H	  18.3307000000	  53.3836000000	  49.7910000000
H	  18.0933000000	  55.5267000000	  46.7546000000
H	  19.2788000000	  56.3597000000	  47.8118000000
O	  19.5615000000	  51.5137000000	  45.3432000000
O	  19.2413000000	  49.4008000000	  45.1549000000
C	  20.2817000000	  51.1634000000	  44.2490000000
C	  19.9997000000	  49.7089000000	  43.9738000000
C	  19.6347000000	  50.3760000000	  46.0314000000
H	  20.1232000000	  51.8162000000	  43.3524000000
H	  21.3772000000	  51.2903000000	  44.5094000000
H	  19.4284000000	  49.5105000000	  43.1067000000
H	  20.8998000000	  49.1185000000	  43.8737000000
H	  20.6864000000	  50.1147000000	  46.2917000000
H	  19.0164000000	  50.1741000000	  46.9543000000
N	  22.2331000000	  55.1414000000	  48.4263000000
S	  22.6800000000	  53.9509000000	  47.4796000000
O	  21.5486000000	  53.1598000000	  46.9193000000
O	  23.7576000000	  54.3419000000	  46.5823000000
C	  23.5291000000	  52.8730000000	  48.5881000000
F	  22.7343000000	  52.4015000000	  49.4751000000
F	  24.5859000000	  53.3374000000	  49.2143000000
F	  23.9647000000	  51.8215000000	  47.9910000000
S	  22.7159000000	  56.6571000000	  48.2753000000
O	  21.6768000000	  57.5137000000	  48.6760000000
O	  23.4400000000	  57.0213000000	  47.1050000000
C	  23.9832000000	  56.7688000000	  49.6842000000
F	  25.0093000000	  55.9375000000	  49.4401000000
F	  24.3645000000	  58.0130000000	  49.8409000000
F	  23.4258000000	  56.4592000000	  50.8133000000
N	  21.5347000000	  54.2655000000	  43.3679000000
S	  23.0538000000	  54.4863000000	  42.9905000000
O	  23.6657000000	  55.6632000000	  43.5436000000
O	  23.9215000000	  53.3276000000	  43.0458000000
C	  22.9493000000	  54.9188000000	  41.2531000000
F	  24.1107000000	  54.8021000000	  40.6302000000
F	  22.5928000000	  56.1690000000	  41.2511000000
F	  22.0278000000	  54.2208000000	  40.5562000000
S	  20.7508000000	  55.0330000000	  44.4899000000
O	  21.5580000000	  55.9355000000	  45.2803000000
O	  19.7080000000	  54.2722000000	  45.1632000000
C	  19.7915000000	  56.1432000000	  43.3618000000
F	  19.2548000000	  55.5396000000	  42.3224000000
F	  18.8256000000	  56.8400000000	  43.9730000000
F	  20.6012000000	  57.0397000000	  42.8694000000
