57

Li	  17.8314000000	  42.3072000000	  16.0668000000
O	  18.7929000000	  45.5775000000	  13.4721000000
O	  18.4584000000	  43.8900000000	  14.9168000000
C	  19.7987000000	  45.7398000000	  14.4894000000
C	  19.7729000000	  44.3025000000	  15.1612000000
C	  17.8262000000	  44.8015000000	  14.0267000000
H	  20.7534000000	  46.1134000000	  14.1941000000
H	  19.4735000000	  46.5294000000	  15.1978000000
H	  20.4701000000	  43.6137000000	  14.6587000000
H	  20.0180000000	  44.2691000000	  16.2570000000
H	  17.2180000000	  45.4314000000	  14.6687000000
H	  17.1588000000	  44.3639000000	  13.2564000000
O	  19.1035000000	  40.9881000000	  15.2523000000
O	  18.7282000000	  38.8711000000	  14.4850000000
C	  19.6656000000	  40.9357000000	  13.9506000000
C	  19.3956000000	  39.4730000000	  13.4090000000
C	  19.2233000000	  39.6392000000	  15.5554000000
H	  19.2764000000	  41.6625000000	  13.2924000000
H	  20.6984000000	  41.1462000000	  13.9074000000
H	  18.8488000000	  39.4940000000	  12.4721000000
H	  20.3948000000	  39.0044000000	  13.3420000000
H	  20.2751000000	  39.4293000000	  15.7851000000
H	  18.7066000000	  39.4315000000	  16.4692000000
O	  19.2362000000	  41.6097000000	  20.1065000000
O	  18.3718000000	  42.0284000000	  17.9733000000
C	  18.3200000000	  40.5578000000	  19.8548000000
C	  17.4760000000	  41.2056000000	  18.7221000000
C	  19.5339000000	  41.9854000000	  18.7966000000
H	  18.8181000000	  39.6028000000	  19.5725000000
H	  17.6268000000	  40.2847000000	  20.6474000000
H	  17.0415000000	  40.3606000000	  18.2013000000
H	  16.6452000000	  41.8199000000	  19.0511000000
H	  20.0504000000	  42.9742000000	  18.7195000000
H	  20.1149000000	  41.1664000000	  18.3112000000
N	  14.9920000000	  45.6697000000	  17.3174000000
S	  14.2192000000	  45.2342000000	  16.0352000000
O	  14.2936000000	  46.2556000000	  15.0450000000
O	  14.2868000000	  43.8742000000	  15.5545000000
C	  12.5027000000	  45.3435000000	  16.5987000000
F	  12.1923000000	  46.5643000000	  16.9395000000
F	  12.2331000000	  44.6573000000	  17.6436000000
F	  11.6039000000	  45.0855000000	  15.6468000000
S	  16.0980000000	  44.8493000000	  18.0172000000
O	  16.6559000000	  43.8179000000	  17.1335000000
O	  15.9017000000	  44.6125000000	  19.4464000000
C	  17.4392000000	  46.1351000000	  18.1003000000
F	  17.1702000000	  47.0312000000	  19.0463000000
F	  18.5462000000	  45.5669000000	  18.4606000000
F	  17.5884000000	  46.7719000000	  16.9752000000
S	  14.8611000000	  45.9790000000	  23.5222000000
S	  12.8823000000	  45.7012000000	  22.7496000000
S	  12.9017000000	  45.2112000000	  20.7046000000
S	  13.1870000000	  41.5340000000	  17.5157000000
S	  14.6015000000	  40.1655000000	  16.6836000000
S	  16.0426000000	  41.2354000000	  15.6280000000
S	  13.7105000000	  41.8855000000	  19.5593000000
S	  12.2230000000	  43.2158000000	  20.4318000000
