46

Li	  30.2516000000	  28.0644000000	   7.1136700000
O	  28.1992000000	  28.6109000000	   6.9694400000
O	  26.3046000000	  29.1652000000	   8.1395800000
C	  27.1792000000	  28.1479000000	   6.1189400000
C	  26.0758000000	  28.1538000000	   7.1358800000
C	  27.5799000000	  29.6277000000	   7.7221900000
H	  27.0710000000	  28.8309000000	   5.2666300000
H	  27.4218000000	  27.1348000000	   5.8249700000
H	  25.0913000000	  28.3424000000	   6.6799400000
H	  25.9645000000	  27.2146000000	   7.7422600000
H	  28.0958000000	  29.9928000000	   8.5686700000
H	  27.3618000000	  30.5557000000	   7.1991500000
O	  34.0073000000	  25.9550000000	   7.7022700000
O	  32.1537000000	  27.1810000000	   7.1064000000
C	  34.3987000000	  26.7731000000	   6.6432400000
C	  33.2725000000	  27.7010000000	   6.3701100000
C	  32.7768000000	  26.4618000000	   8.1913300000
H	  35.2774000000	  27.3050000000	   6.9028700000
H	  34.7038000000	  26.2010000000	   5.8150500000
H	  33.4801000000	  28.7004000000	   6.7093400000
H	  33.1304000000	  27.6668000000	   5.3059400000
H	  32.2495000000	  25.7083000000	   8.7097500000
H	  33.0090000000	  27.1479000000	   9.0155400000
N	  29.2541000000	  25.2163000000	   8.8966500000
S	  28.9555000000	  26.6033000000	   9.5771100000
O	  29.9072000000	  27.6127000000	   9.1280300000
O	  27.5656000000	  26.8934000000	   9.6218900000
C	  29.4290000000	  26.1409000000	  11.3037000000
F	  30.5992000000	  25.5243000000	  11.2854000000
F	  28.5952000000	  25.2494000000	  11.8124000000
F	  29.4759000000	  27.1131000000	  12.1990000000
S	  29.6777000000	  24.9877000000	   7.3798100000
O	  30.6087000000	  23.9013000000	   7.1071300000
O	  29.6310000000	  26.0781000000	   6.5118700000
C	  28.1049000000	  24.1955000000	   6.7883200000
F	  28.2832000000	  23.6454000000	   5.5979300000
F	  27.7115000000	  23.2494000000	   7.5865900000
F	  27.0621000000	  25.0828000000	   6.6753500000
S	  23.1760000000	  28.5957000000	   4.5932900000
S	  23.7582000000	  30.4010000000	   5.4115700000
S	  24.7113000000	  31.6730000000	   4.0278000000
S	  30.0156000000	  31.3093000000	   4.2615400000
S	  30.8226000000	  29.6277000000	   5.3668300000
S	  30.9011000000	  30.1284000000	   7.3687000000
S	  28.0835000000	  31.0228000000	   3.4873800000
S	  26.6556000000	  31.9909000000	   4.6269300000
