46

Li	  26.4616000000	  16.7730000000	  10.2170000000
N	  24.5833000000	  15.8872000000	   6.4461800000
S	  24.9225000000	  16.6182000000	   5.1012800000
O	  23.7857000000	  17.2175000000	   4.5122500000
O	  26.1164000000	  17.4568000000	   5.1920700000
C	  25.3683000000	  15.2388000000	   4.0154700000
F	  25.1134000000	  15.4918000000	   2.7493300000
F	  24.6597000000	  14.1400000000	   4.3810700000
F	  26.6453000000	  14.8559000000	   4.1530500000
S	  24.3580000000	  16.4921000000	   7.8644500000
O	  23.9960000000	  17.8777000000	   7.9288000000
O	  25.2780000000	  16.0399000000	   8.8761300000
C	  22.8502000000	  15.5777000000	   8.3683700000
F	  22.3833000000	  16.0347000000	   9.5027800000
F	  21.8780000000	  15.6687000000	   7.5004900000
F	  23.0034000000	  14.2974000000	   8.6199900000
N	  24.3290000000	  17.5216000000	  13.5508000000
S	  24.7310000000	  16.0855000000	  13.1115000000
O	  25.2089000000	  16.0185000000	  11.7206000000
O	  25.3768000000	  15.2557000000	  14.0572000000
C	  23.1520000000	  15.1750000000	  13.0107000000
F	  22.4643000000	  15.0599000000	  14.1344000000
F	  23.2440000000	  13.9089000000	  12.5616000000
F	  22.3795000000	  15.7837000000	  12.2209000000
S	  25.0820000000	  18.5011000000	  14.5787000000
O	  25.8455000000	  19.5709000000	  14.0409000000
O	  25.4466000000	  17.8468000000	  15.8477000000
C	  23.6271000000	  19.5627000000	  15.0334000000
F	  23.8390000000	  20.3766000000	  16.0724000000
F	  23.3814000000	  20.3264000000	  13.9445000000
F	  22.5709000000	  18.7646000000	  15.2102000000
N	  27.1107000000	  20.1228000000	   9.0510000000
S	  27.8303000000	  18.9374000000	   8.3304900000
O	  27.6805000000	  17.6440000000	   8.9628100000
O	  27.7209000000	  19.0279000000	   6.9149900000
C	  29.5538000000	  19.4351000000	   8.4912200000
F	  30.3331000000	  18.5602000000	   7.8608800000
F	  29.9223000000	  19.4377000000	   9.7878700000
F	  29.8442000000	  20.6524000000	   8.0821300000
S	  26.3606000000	  19.9718000000	  10.4303000000
O	  27.0778000000	  20.6503000000	  11.5138000000
O	  25.7831000000	  18.6689000000	  10.7122000000
C	  24.9275000000	  21.0826000000	  10.1688000000
F	  24.3142000000	  20.8073000000	   9.0880200000
F	  24.0819000000	  20.9633000000	  11.1939000000
F	  25.2428000000	  22.3750000000	  10.0597000000
