52

Li	  37.6507000000	  44.8244000000	  18.1286000000
O	  37.7462000000	  43.1137000000	  17.3778000000
O	  36.5151000000	  41.9127000000	  15.9469000000
C	  37.7017000000	  41.7819000000	  17.8961000000
C	  36.5507000000	  41.1157000000	  17.1028000000
C	  37.5791000000	  42.8266000000	  16.0260000000
H	  38.6720000000	  41.2970000000	  17.7620000000
H	  37.5877000000	  41.7477000000	  18.9978000000
H	  36.5916000000	  40.0524000000	  17.0318000000
H	  35.5760000000	  41.4538000000	  17.4500000000
H	  37.4361000000	  43.6704000000	  15.2951000000
H	  38.5126000000	  42.3719000000	  15.6661000000
O	  34.0531000000	  43.4862000000	  20.1945000000
O	  35.7750000000	  44.1165000000	  18.7338000000
C	  33.5428000000	  43.3467000000	  18.8490000000
C	  34.6321000000	  44.0595000000	  18.0081000000
C	  35.4544000000	  43.5996000000	  20.0044000000
H	  33.5195000000	  42.2982000000	  18.5861000000
H	  32.5297000000	  43.7199000000	  18.6478000000
H	  34.7876000000	  43.4218000000	  17.0790000000
H	  34.3069000000	  45.0529000000	  17.7542000000
H	  35.8954000000	  44.2603000000	  20.7675000000
H	  35.9690000000	  42.6470000000	  20.2689000000
O	  38.5006000000	  46.2937000000	  17.4867000000
C	  37.5563000000	  47.3169000000	  17.1055000000
C	  39.6797000000	  46.3172000000	  16.6768000000
C	  36.4439000000	  46.7826000000	  16.2273000000
C	  37.0611000000	  47.8845000000	  18.4646000000
C	  40.6763000000	  47.4156000000	  17.2284000000
C	  40.3133000000	  44.9086000000	  16.7008000000
H	  37.9947000000	  48.2111000000	  16.5877000000
H	  39.4387000000	  46.4435000000	  15.5335000000
H	  36.7839000000	  46.1171000000	  15.4219000000
H	  35.8762000000	  46.1985000000	  16.8731000000
H	  35.7965000000	  47.5113000000	  15.7712000000
H	  37.8716000000	  48.4074000000	  19.0249000000
H	  36.1997000000	  48.5215000000	  18.1314000000
H	  36.7044000000	  47.0323000000	  19.0665000000
H	  41.7046000000	  47.3385000000	  16.8436000000
H	  40.2620000000	  48.4322000000	  16.9825000000
H	  40.7523000000	  47.4928000000	  18.2853000000
H	  41.3267000000	  44.9822000000	  16.2471000000
H	  40.3360000000	  44.4374000000	  17.6850000000
H	  39.7785000000	  44.1620000000	  16.1274000000
S	  35.7255000000	  35.4773000000	  26.5627000000
S	  35.3325000000	  36.6868000000	  24.9358000000
S	  37.1117000000	  37.6622000000	  24.3399000000
S	  38.2191000000	  41.7592000000	  21.9511000000
S	  38.4924000000	  43.8408000000	  22.1081000000
S	  38.7189000000	  44.7182000000	  20.1570000000
S	  36.6309000000	  40.9302000000	  23.1257000000
S	  37.2982000000	  39.7587000000	  24.7193000000
