57

Li	  30.6500000000	  51.0462000000	  36.3650000000
O	  33.7215000000	  50.4883000000	  33.3073000000
O	  32.2302000000	  50.8668000000	  34.8631000000
C	  33.7485000000	  51.8891000000	  33.4902000000
C	  32.9710000000	  52.0612000000	  34.7577000000
C	  33.1050000000	  49.9270000000	  34.3661000000
H	  34.7586000000	  52.3262000000	  33.5772000000
H	  33.1741000000	  52.3857000000	  32.6809000000
H	  33.6317000000	  52.2387000000	  35.6552000000
H	  32.2919000000	  52.8771000000	  34.8652000000
H	  32.5890000000	  49.0127000000	  34.1498000000
H	  33.8749000000	  49.7293000000	  35.1047000000
N	  28.8794000000	  49.6132000000	  39.2013000000
S	  27.8900000000	  50.2865000000	  38.2088000000
O	  28.4149000000	  51.2758000000	  37.3391000000
O	  27.0318000000	  49.2950000000	  37.5878000000
C	  26.8585000000	  51.2331000000	  39.3360000000
F	  26.2714000000	  50.4974000000	  40.3180000000
F	  25.9553000000	  52.0119000000	  38.7499000000
F	  27.5340000000	  52.0569000000	  40.0262000000
S	  30.4331000000	  49.4072000000	  39.1480000000
O	  31.1232000000	  49.6526000000	  40.4104000000
O	  31.0303000000	  49.9946000000	  37.9662000000
C	  30.6171000000	  47.5853000000	  38.9281000000
F	  30.4184000000	  46.8791000000	  40.0270000000
F	  29.7557000000	  47.1364000000	  38.0373000000
F	  31.7964000000	  47.2486000000	  38.4529000000
N	  28.2058000000	  50.4359000000	  33.7355000000
S	  28.7914000000	  49.1924000000	  34.5189000000
O	  29.9456000000	  49.4686000000	  35.3238000000
O	  27.8040000000	  48.3733000000	  35.1295000000
C	  29.4626000000	  48.1258000000	  33.1648000000
F	  30.0675000000	  48.8245000000	  32.1609000000
F	  28.6099000000	  47.3571000000	  32.6418000000
F	  30.4052000000	  47.3085000000	  33.5638000000
S	  28.5523000000	  51.9603000000	  33.8439000000
O	  29.4875000000	  52.2399000000	  34.8949000000
O	  27.4122000000	  52.8511000000	  33.6472000000
C	  29.5052000000	  52.2445000000	  32.2959000000
F	  30.7686000000	  51.7514000000	  32.4622000000
F	  28.9834000000	  51.5405000000	  31.2786000000
F	  29.5213000000	  53.5214000000	  32.0466000000
N	  32.7712000000	  52.5885000000	  39.1483000000
S	  33.1441000000	  52.8050000000	  40.6498000000
O	  33.2790000000	  54.2026000000	  41.0451000000
O	  32.5355000000	  51.8038000000	  41.4800000000
C	  34.9672000000	  52.3820000000	  40.7116000000
F	  35.7204000000	  53.1701000000	  40.0478000000
F	  35.3040000000	  51.1898000000	  40.1607000000
F	  35.4492000000	  52.4274000000	  41.9379000000
S	  31.7053000000	  53.4097000000	  38.3766000000
O	  30.7078000000	  54.0024000000	  39.2169000000
O	  31.1242000000	  52.7491000000	  37.2289000000
C	  32.5972000000	  54.7633000000	  37.5121000000
F	  32.9424000000	  55.8208000000	  38.2293000000
F	  33.6952000000	  54.2436000000	  36.9853000000
F	  31.9174000000	  55.2055000000	  36.4383000000
