28

Li	  44.1154000000	  26.4140000000	  15.6298000000
O	  43.8494000000	  24.9173000000	  19.3232000000
O	  44.0863000000	  24.9869000000	  17.0357000000
C	  45.2128000000	  24.8631000000	  18.9127000000
C	  45.2270000000	  24.2975000000	  17.5463000000
C	  43.1613000000	  25.0682000000	  18.1105000000
H	  45.4759000000	  25.8911000000	  18.8995000000
H	  45.8389000000	  24.4050000000	  19.7322000000
H	  46.1728000000	  24.5321000000	  17.0574000000
H	  45.0230000000	  23.2365000000	  17.5440000000
H	  42.3589000000	  24.3544000000	  17.9555000000
H	  42.6148000000	  26.0285000000	  18.1431000000
S	  43.8815000000	  28.2642000000	  16.3973000000
S	  45.8855000000	  27.6510000000	  16.3687000000
S	  46.8130000000	  28.1894000000	  14.5122000000
S	  52.1034000000	  27.5324000000	  14.4981000000
S	  52.9792000000	  28.6500000000	  12.9572000000
S	  54.3194000000	  30.1170000000	  13.6230000000
S	  50.2894000000	  28.3199000000	  15.2950000000
S	  48.7183000000	  27.3158000000	  14.3133000000
S	  42.8618000000	  25.4877000000	  14.0717000000
S	  41.7322000000	  27.1591000000	  13.4466000000
S	  39.9756000000	  26.6730000000	  12.4716000000
S	  37.9300000000	  25.8868000000	   8.5821000000
S	  36.8112000000	  26.8167000000	   7.0538700000
S	  36.5035000000	  25.5741000000	   5.3648600000
S	  39.7976000000	  26.7194000000	   8.9714300000
S	  39.6993000000	  27.8852000000	  10.7274000000
