43

Li	  53.4442000000	  22.3821000000	  15.8946000000
O	  52.0478000000	  22.2117000000	  19.8899000000
O	  53.0763000000	  22.4383000000	  17.8681000000
C	  53.0580000000	  21.2080000000	  19.8559000000
C	  53.1640000000	  21.1045000000	  18.3945000000
C	  52.5779000000	  23.1302000000	  18.9673000000
H	  53.9777000000	  21.5212000000	  20.3284000000
H	  52.8282000000	  20.2871000000	  20.3317000000
H	  54.1987000000	  20.7311000000	  18.1446000000
H	  52.4103000000	  20.3768000000	  18.0102000000
H	  51.8977000000	  23.8699000000	  18.4857000000
H	  53.4514000000	  23.6226000000	  19.4153000000
N	  57.8453000000	  23.4013000000	  16.4893000000
S	  56.8014000000	  22.5820000000	  17.2779000000
O	  55.5108000000	  22.6752000000	  16.6905000000
O	  57.3141000000	  21.3339000000	  17.6752000000
C	  56.6956000000	  23.5605000000	  18.8353000000
F	  57.8113000000	  23.6935000000	  19.5214000000
F	  55.9192000000	  22.9820000000	  19.6857000000
F	  56.2749000000	  24.8120000000	  18.7647000000
S	  58.2250000000	  23.2132000000	  15.0165000000
O	  58.5956000000	  24.4700000000	  14.3742000000
O	  57.3726000000	  22.3539000000	  14.2746000000
C	  59.7688873610	  22.2662000000	  15.0843000000
F	  60.2870673610	  21.9642000000	  13.8631000000
F	  60.7846673610	  22.8541000000	  15.7553000000
F	  59.6112173610	  21.0862000000	  15.6421000000
S	  52.3416000000	  24.0137000000	  15.1475000000
S	  53.4969000000	  25.6422000000	  15.9965000000
S	  52.5575000000	  26.8365000000	  17.5355000000
S	  52.1419000000	  28.0877000000	  21.8068000000
S	  50.4122000000	  29.1800000000	  21.1451000000
S	  48.7115000000	  28.6042000000	  22.2637000000
S	  52.1624000000	  26.2911000000	  20.8214000000
S	  53.5968000000	  26.5206000000	  19.3019000000
S	  42.8189000000	  21.3610000000	  16.6080000000
S	  44.5203000000	  20.1268000000	  16.6379000000
S	  46.2325000000	  21.1239000000	  17.1923000000
S	  50.2513000000	  21.3526000000	  15.4852000000
S	  51.6912000000	  20.0193000000	  14.7543000000
S	  53.7102000000	  20.5656000000	  15.0823000000
S	  49.7378000000	  20.8201000000	  17.4144000000
S	  47.8918000000	  19.7282000000	  17.1859000000
