52

Li	  38.5892000000	  56.4600000000	  50.5878000000
O	  38.6283000000	  57.0863000000	  52.2652000000
C	  39.5366000000	  58.1888000000	  52.1767000000
C	  38.1573000000	  56.7631000000	  53.5636000000
C	  40.9231000000	  57.7787000000	  52.5680000000
C	  39.4760000000	  58.5411000000	  50.6839000000
C	  37.0495000000	  57.6627000000	  54.1111000000
C	  37.6825000000	  55.3580000000	  53.4511000000
H	  39.2130000000	  59.1657436180	  52.6245000000
H	  39.0037000000	  56.7591000000	  54.2455000000
H	  40.8914000000	  57.4663000000	  53.5647000000
H	  41.2994000000	  57.0380000000	  51.8979000000
H	  41.6376000000	  58.5360000000	  52.3923000000
H	  39.7143000000	  57.7380000000	  49.9673000000
H	  38.4594000000	  58.7631000000	  50.3128000000
H	  40.0625000000	  59.4183036180	  50.4027000000
H	  37.2417000000	  58.6808000000	  54.1981000000
H	  36.0781000000	  57.5025000000	  53.6254000000
H	  36.6373000000	  57.3891000000	  55.0545000000
H	  37.2900000000	  54.9797000000	  54.4625000000
H	  36.8655000000	  55.1127000000	  52.8104000000
H	  38.4832000000	  54.6770000000	  53.0552000000
N	  35.3360000000	  55.2069000000	  49.0766000000
S	  35.3187000000	  56.7539000000	  49.2769000000
O	  34.0402000000	  57.2046000000	  49.7675000000
O	  36.5360000000	  57.3364000000	  49.7852000000
C	  35.3166000000	  57.4173000000	  47.6152000000
F	  36.1054000000	  56.8328000000	  46.7432000000
F	  35.4932000000	  58.7193000000	  47.5892000000
F	  34.1473000000	  57.2362000000	  47.0743000000
S	  36.4574000000	  54.1748000000	  49.4536000000
O	  37.4752000000	  54.7035000000	  50.3919000000
O	  36.9718000000	  53.3840000000	  48.3201000000
C	  35.5819000000	  53.0056000000	  50.5648000000
F	  34.8390000000	  53.5275000000	  51.5383000000
F	  34.6548000000	  52.3506000000	  49.8410000000
F	  36.4347000000	  52.1784000000	  51.1396000000
N	  41.1284000000	  55.4704000000	  47.6658000000
S	  40.4587000000	  54.9591000000	  46.3663000000
O	  39.3493000000	  54.0675000000	  46.5975000000
O	  40.2335000000	  56.0500000000	  45.4041000000
C	  41.8226000000	  53.9484000000	  45.5914000000
F	  41.4995000000	  53.3902000000	  44.4640000000
F	  42.3886000000	  53.0192000000	  46.3238000000
F	  42.7455000000	  54.8179000000	  45.2607000000
S	  41.1638000000	  54.7624000000	  49.1001000000
O	  41.1751000000	  53.3207000000	  48.9685000000
O	  40.2194000000	  55.3343000000	  50.0047000000
C	  42.7409000000	  55.2695000000	  49.8443000000
F	  43.7900000000	  54.7359000000	  49.3065000000
F	  42.9304000000	  56.5749000000	  49.7249000000
F	  42.8260000000	  54.8778000000	  51.0498000000
