33

Li	   2.1543800000	  40.8214000000	  41.5472000000
O	   0.9613526390	  39.5243000000	  41.8702000000
O	  -0.4189473610	  37.8987000000	  41.1220000000
C	   1.4723600000	  38.2108000000	  42.0908000000
C	   0.8221526390	  37.2734000000	  41.1018000000
C	  -0.2568473610	  39.3030000000	  41.1757000000
H	   2.5434300000	  38.2290000000	  42.0535000000
H	   1.2951600000	  37.9416000000	  43.0858000000
H	   1.1736000000	  37.3714000000	  40.0964000000
H	   0.7980526390	  36.2537000000	  41.5293000000
H	  -1.1305473610	  39.6209000000	  41.7111000000
H	  -0.2273473610	  39.6941000000	  40.1369000000
O	   2.2309000000	  41.9420000000	  42.9743000000
C	   3.4277600000	  41.9179000000	  43.7545000000
C	   1.0877300000	  42.5237000000	  43.6797000000
C	   3.9349800000	  40.5088000000	  43.7448000000
C	   4.4454600000	  42.9627000000	  43.2728000000
C	   0.0421526390	  43.0996000000	  42.6793000000
C	   0.4886526390	  41.4677000000	  44.5925000000
H	   3.2295400000	  42.1858000000	  44.7801000000
H	   1.3463600000	  43.2927000000	  44.2545000000
H	   4.9515700000	  40.5473000000	  44.1259000000
H	   3.2566600000	  39.8643000000	  44.3468000000
H	   4.0856300000	  40.0182000000	  42.7971000000
H	   5.3745000000	  42.9619000000	  43.7783000000
H	   4.6761200000	  42.8353000000	  42.2247000000
H	   3.9756700000	  43.9172000000	  43.3478000000
H	  -0.4073473610	  42.2682000000	  42.1733000000
H	  -0.7418473610	  43.7566000000	  43.1737000000
H	   0.5113526390	  43.6836000000	  41.8530000000
H	   1.1428500000	  41.0718000000	  45.3131000000
H	  -0.2372473610	  42.0475000000	  45.2617000000
H	  -0.1023473610	  40.6726000000	  44.0806000000
