60

Li	  40.7135000000	  31.0803000000	  20.2725000000
O	  40.9374000000	  31.3394000000	  23.9170000000
O	  40.3134000000	  31.7782000000	  21.8819000000
C	  39.6981000000	  31.9912000000	  24.1778000000
C	  39.1528000000	  32.1688000000	  22.7290000000
C	  41.4316000000	  31.7220000000	  22.7261000000
H	  39.0503000000	  31.2972000000	  24.7277000000
H	  39.7217000000	  32.9455000000	  24.6424000000
H	  38.2914000000	  31.5452000000	  22.5978000000
H	  38.8206000000	  33.1776000000	  22.4568000000
H	  41.7931000000	  32.7747000000	  22.7297000000
H	  42.1862000000	  31.1054000000	  22.1730000000
O	  42.2979000000	  29.6273000000	  19.7211000000
O	  43.4504000000	  27.7210000000	  19.1995000000
C	  42.1048000000	  29.4301000000	  18.3824000000
C	  42.3652000000	  27.8972000000	  18.3354000000
C	  43.5118000000	  28.9167000000	  19.9116000000
H	  41.1001000000	  29.7598000000	  18.0740000000
H	  42.7498000000	  29.9719000000	  17.7138000000
H	  41.4921000000	  27.3024000000	  18.7958000000
H	  42.4022000000	  27.4034000000	  17.3809000000
H	  44.3799000000	  29.4220000000	  19.4362000000
H	  43.7871000000	  28.6838000000	  21.0069000000
O	  39.5138000000	  31.8207000000	  18.7332000000
O	  38.5097000000	  33.0414000000	  17.1243000000
C	  38.6089000000	  32.6467000000	  19.3313000000
C	  38.1589000000	  33.7145000000	  18.3192000000
C	  39.3767000000	  32.0252000000	  17.3802000000
H	  37.7915000000	  32.1343000000	  19.8080000000
H	  39.0699000000	  33.2152000000	  20.1750000000
H	  37.0771000000	  33.9635000000	  18.2633000000
H	  38.5351000000	  34.7108000000	  18.5221000000
H	  40.2405000000	  32.2963000000	  16.9208000000
H	  38.9418000000	  31.1712000000	  16.8787000000
O	  37.6667000000	  28.6348000000	  21.2120000000
O	  39.6268000000	  29.3452000000	  20.5549000000
C	  38.5282000000	  27.8279000000	  21.9943000000
C	  39.9098000000	  28.5259000000	  21.6618000000
C	  38.4212000000	  28.9326000000	  20.0821000000
H	  38.0394000000	  27.8994000000	  22.9208000000
H	  38.4107000000	  26.7603000000	  21.7329000000
H	  40.2460000000	  29.2029000000	  22.4532000000
H	  40.7251000000	  27.7317000000	  21.4654000000
H	  38.5809000000	  28.1147000000	  19.4205000000
H	  37.9653000000	  29.8080000000	  19.6558000000
N	  42.8149000000	  34.8337000000	  20.4140000000
S	  43.0525000000	  33.4010000000	  19.7516000000
O	  44.3310000000	  32.8039000000	  20.1707000000
O	  41.9316000000	  32.5258000000	  19.7292000000
C	  43.3248000000	  33.8277000000	  18.0122000000
F	  42.2024000000	  34.2853000000	  17.4562000000
F	  43.6421000000	  32.7483000000	  17.3636000000
F	  44.2658000000	  34.6385000000	  17.8475000000
S	  43.4350000000	  35.4882000000	  21.7443000000
O	  44.5336000000	  36.4153000000	  21.6092000000
O	  43.5918000000	  34.4577000000	  22.7098000000
C	  41.9904000000	  36.4348000000	  22.4632000000
F	  41.6449000000	  37.4639000000	  21.7109000000
F	  40.9214000000	  35.7049000000	  22.7377000000
F	  42.4254000000	  36.9996000000	  23.5902000000
