54

Li	  11.0671000000	  49.6652000000	  41.2820000000
O	  13.6087000000	  49.2297000000	  42.8238000000
O	  14.6309000000	  47.1840000000	  40.9285000000
O	  10.9520000000	  50.4549000000	  43.0648000000
O	  13.1579000000	  44.8572000000	  40.9237000000
O	   9.0520100000	  49.4405000000	  41.1131000000
C	  14.9276000000	  49.2043000000	  42.2205000000
C	  13.3261000000	  50.3708000000	  43.5791000000
C	  14.7709000000	  48.5962000000	  40.7866000000
C	  11.8882000000	  50.2902000000	  44.1013000000
C	  14.5058000000	  46.5044000000	  39.7294000000
C	   9.5919400000	  50.0691000000	  43.3249000000
C	  14.2155000000	  44.9940000000	  40.0264000000
C	   8.6722000000	  50.3228000000	  42.1415000000
C	  12.6237000000	  43.5957000000	  40.8991000000
C	   8.2966800000	  49.6092000000	  39.9358000000
H	  15.4422000000	  50.1134000000	  42.2403000000
H	  15.7285000000	  48.6277000000	  42.7630000000
H	  14.0884000000	  50.4116000000	  44.3830000000
H	  13.4758000000	  51.2282000000	  43.0278000000
H	  13.8734000000	  49.1253000000	  40.3506000000
H	  15.6297000000	  48.8299000000	  40.1165000000
H	  11.7262000000	  49.3974000000	  44.6214000000
H	  11.7089000000	  51.1665000000	  44.7775000000
H	  13.5678000000	  46.8088000000	  39.1591000000
H	  15.3242000000	  46.6035000000	  39.0324000000
H	   9.5343800000	  48.9975000000	  43.5102000000
H	   9.1617900000	  50.6915000000	  44.1264000000
H	  14.0037000000	  44.4499000000	  39.1052000000
H	  15.1295000000	  44.6312000000	  40.4786000000
H	   7.6564100000	  50.1565000000	  42.4335000000
H	   8.7372000000	  51.3256000000	  41.7047000000
H	  13.3208000000	  42.8786000000	  41.3426000000
H	  11.6716000000	  43.5971000000	  41.4795000000
H	  12.3184000000	  43.2975000000	  39.8757000000
H	   8.5037500000	  48.8844000000	  39.1939000000
H	   7.2034300000	  49.6765000000	  40.2621000000
H	   8.4538300000	  50.6126000000	  39.5059000000
S	  18.5935000000	  47.2817000000	  33.7865000000
S	  16.6730000000	  46.3636000000	  33.4839000000
S	  15.1402000000	  47.7749000000	  33.7805000000
S	  12.9639000000	  50.4353000000	  37.1732000000
S	  11.6755000000	  49.9354000000	  38.8514000000
S	  11.5874000000	  51.4321000000	  40.3957000000
S	  14.5712000000	  48.9924000000	  37.0855000000
S	  14.1899000000	  47.3910000000	  35.7117000000
S	  11.2134000000	  47.2294000000	  41.0651000000
S	  11.1010000000	  46.7598000000	  43.1272000000
S	   9.5617200000	  45.4610000000	  43.6618000000
S	  12.3402000000	  43.1697000000	  46.9658000000
S	  12.9222000000	  41.2375000000	  47.6834000000
S	  12.1767000000	  41.0120000000	  49.6649000000
S	  10.4254000000	  43.0354000000	  46.0594000000
S	  10.3172000000	  43.5273000000	  44.0621000000
