28

Li	  15.2194000000	  27.7324000000	  47.1297000000
O	  15.0316000000	  27.9766000000	  51.1748000000
O	  14.8264000000	  27.5235000000	  48.9786000000
C	  13.7163000000	  28.4973000000	  50.8119000000
C	  13.5280000000	  27.8668000000	  49.4416000000
C	  15.3754000000	  27.1075000000	  50.1311000000
H	  12.9352000000	  28.1530000000	  51.4795000000
H	  13.6529000000	  29.6298000000	  50.7871000000
H	  12.8406000000	  27.0172000000	  49.4637000000
H	  13.0284000000	  28.5660000000	  48.8033000000
H	  16.4747000000	  27.1148000000	  49.9988000000
H	  15.2143000000	  26.0295000000	  50.2039000000
S	  14.1071000000	  29.1263000000	  45.9625000000
S	  15.0774000000	  30.2522000000	  47.4950000000
S	  13.7779000000	  31.6320000000	  48.4182000000
S	  14.0930000000	  33.8377000000	  52.5356000000
S	  14.7787000000	  35.7196000000	  53.1359000000
S	  13.7144000000	  36.6695000000	  54.6407000000
S	  15.4245000000	  33.0345000000	  51.1000000000
S	  14.8710000000	  33.2830000000	  49.1185000000
S	  11.4737000000	  19.2404000000	  45.3824000000
S	  13.0203000000	  20.6116000000	  45.5345000000
S	  13.8785000000	  20.9734000000	  43.6678000000
S	  15.2911000000	  26.0240000000	  44.5435000000
S	  16.3886000000	  25.9375000000	  46.3997000000
S	  17.3713000000	  27.7507000000	  46.8842000000
S	  15.5134000000	  24.3043000000	  43.2186000000
S	  13.6929000000	  23.0040000000	  43.0341000000
