31

Li	  20.5245000000	  41.4673000000	  17.2205000000
O	  22.3284000000	  40.6163000000	  16.9977000000
O	  24.5434000000	  40.0875000000	  16.3933000000
C	  23.2053000000	  40.9357000000	  18.0469000000
C	  24.4926000000	  40.0955000000	  17.7946000000
C	  23.1722000000	  40.1834000000	  16.0043000000
H	  23.3793000000	  41.9798000000	  17.9968000000
H	  22.7209000000	  40.7268000000	  18.9757000000
H	  25.2781000000	  40.6093000000	  18.3228000000
H	  24.4235000000	  39.0570000000	  18.0659000000
H	  22.8678000000	  39.2890000000	  15.5440000000
H	  23.2981000000	  40.8849000000	  15.1812000000
O	  19.9986000000	  40.6944000000	  21.0149000000
O	  19.8689000000	  40.3270000000	  18.7986000000
C	  20.4564000000	  39.3926000000	  20.8675000000
C	  19.9734000000	  39.0448000000	  19.4407000000
C	  19.4639000000	  41.1886000000	  19.8332000000
H	  21.5127000000	  39.3906000000	  20.8837000000
H	  19.9570000000	  38.6584000000	  21.4737000000
H	  20.6326000000	  38.3753000000	  19.0001000000
H	  18.9669000000	  38.6627000000	  19.3539000000
H	  18.3914000000	  40.9537000000	  19.8085000000
H	  19.7254000000	  42.2259000000	  19.6833000000
S	  20.7434000000	  43.4762000000	  16.9336000000
S	  19.5246000000	  42.5783000000	  15.3262000000
S	  19.6531000000	  40.4170000000	  15.3629000000
S	  18.0807000000	  37.0935000000	  12.5750000000
S	  16.7723000000	  35.9051000000	  13.7117000000
S	  15.3021000000	  34.9943000000	  12.6223000000
S	  19.8933000000	  37.6092000000	  13.5374000000
S	  20.2709000000	  39.6803000000	  13.4732000000
