64

Li	  51.7038000000	  43.9788000000	  37.9283000000
O	  53.9107000000	  45.7762000000	  34.7397000000
O	  52.4391000000	  45.0547000000	  36.2859000000
C	  52.5964000000	  45.7353000000	  34.1644000000
C	  51.6076000000	  45.5798000000	  35.3104000000
C	  53.7127000000	  45.5662000000	  36.1077000000
H	  52.2980000000	  46.6288000000	  33.5983000000
H	  52.5642000000	  44.8786000000	  33.4559000000
H	  51.3184000000	  46.6682000000	  35.4695000000
H	  50.7902000000	  44.9105000000	  35.1086000000
H	  54.4701000000	  44.9180000000	  36.4399000000
H	  53.6960000000	  46.4978000000	  36.6670000000
O	  51.6379000000	  42.0762000000	  37.4973000000
O	  52.4771000000	  39.0953000000	  38.3051000000
O	  49.8262000000	  44.3150000000	  37.2624000000
O	  49.6308000000	  37.4860000000	  39.9150000000
O	  51.0261000000	  45.9647000000	  38.7856000000
C	  52.6900000000	  41.2232000000	  37.1077000000
C	  50.5053000000	  42.0855000000	  36.6782000000
C	  53.1526000000	  40.3305000000	  38.3124000000
C	  49.3998000000	  42.9739000000	  37.3314000000
C	  51.1637000000	  38.9944000000	  38.8630000000
C	  49.0130000000	  45.0769000000	  38.0347000000
C	  50.7466000000	  37.4802000000	  39.0240000000
C	  49.7346000000	  46.3927000000	  38.2480000000
C	  49.1014000000	  36.2262000000	  40.0171000000
C	  51.8687000000	  47.0792000000	  38.9489000000
H	  52.5239000000	  40.6177000000	  36.2258000000
H	  53.5084000000	  41.8493000000	  36.7209000000
H	  50.7768000000	  42.4401000000	  35.6312000000
H	  50.0885000000	  41.1158000000	  36.5253000000
H	  54.2071000000	  40.0868000000	  38.1240000000
H	  53.0264000000	  40.8846000000	  39.2479000000
H	  48.4080000000	  42.8319000000	  36.9141000000
H	  49.4139000000	  42.6926000000	  38.4093000000
H	  51.1010000000	  39.5607000000	  39.8269000000
H	  50.4635000000	  39.4794000000	  38.1963000000
H	  47.9382000000	  45.2955000000	  37.7145000000
H	  48.8318000000	  44.6703000000	  39.0819000000
H	  50.6975000000	  37.0365000000	  38.0125000000
H	  51.6464000000	  36.9503000000	  39.5059000000
H	  49.8471000000	  46.8665000000	  37.3177000000
H	  49.2908000000	  46.9973000000	  39.0276000000
H	  48.3034000000	  35.9796000000	  40.7339000000
H	  48.5844000000	  36.1058000000	  39.0114000000
H	  49.8686000000	  35.4246000000	  39.9772000000
H	  52.9468000000	  46.7685000000	  38.9753000000
H	  51.8351000000	  47.6542000000	  38.0685000000
H	  51.5882000000	  47.8611000000	  39.7267000000
N	  53.8482000000	  43.2129000000	  41.3088000000
S	  52.3842000000	  43.4420000000	  41.8471000000
O	  52.2333000000	  44.3330000000	  42.9681000000
O	  51.2538000000	  43.3863000000	  40.8629000000
C	  52.2415000000	  41.8044000000	  42.6183000000
F	  53.2160000000	  41.5074000000	  43.4255000000
F	  52.1440000000	  40.8346000000	  41.7088000000
F	  51.0921000000	  41.7784000000	  43.3139000000
S	  54.4346000000	  43.4624000000	  39.9006000000
O	  53.4095000000	  43.9706000000	  38.9489000000
O	  55.2886000000	  42.3961000000	  39.5117000000
C	  55.6276000000	  44.8755000000	  40.1577000000
F	  55.0234000000	  45.9140000000	  40.7510000000
F	  56.6536000000	  44.4516000000	  40.8914000000
F	  56.2492000000	  45.3687000000	  39.1481000000
