31

Li	  22.2742000000	  33.2954000000	  20.2054000000
O	  20.7341000000	  33.5123000000	  18.9941000000
O	  18.4851000000	  33.0209000000	  19.1170000000
C	  20.4995000000	  32.0915000000	  19.0508000000
C	  19.0402000000	  31.8581000000	  18.6499000000
C	  19.4155000000	  34.0077000000	  18.7674000000
H	  21.0914000000	  31.5554000000	  18.3736000000
H	  20.7165000000	  31.6890000000	  20.0351000000
H	  18.9248000000	  31.8920000000	  17.5303000000
H	  18.5358000000	  30.9408000000	  19.0924000000
H	  19.1896000000	  34.8717000000	  19.3603000000
H	  19.3725000000	  34.2281000000	  17.7303000000
O	  21.8660000000	  32.7267000000	  24.1310000000
O	  21.9923000000	  32.9198000000	  21.9164000000
C	  20.6746000000	  33.3470000000	  23.6898000000
C	  21.0815000000	  33.9622000000	  22.3428000000
C	  22.4043000000	  32.2271000000	  22.9658000000
H	  19.9782000000	  32.5770000000	  23.5760000000
H	  20.2770000000	  34.0580000000	  24.4266000000
H	  20.2041000000	  34.1900000000	  21.6719000000
H	  21.6416000000	  34.8201000000	  22.5535000000
H	  23.5299000000	  32.1122000000	  23.0603000000
H	  22.0506000000	  31.1908000000	  22.7968000000
S	  16.4117000000	  37.2967000000	  19.5725000000
S	  18.2035000000	  37.5737000000	  18.5722000000
S	  19.6793000000	  38.4268000000	  19.8938000000
S	  23.6251000000	  35.6174000000	  18.8899000000
S	  24.6752000000	  34.1625000000	  19.9848000000
S	  24.0701000000	  32.1796000000	  19.3767000000
S	  22.9505000000	  37.1755000000	  19.9506000000
S	  20.9256000000	  36.9661000000	  20.7695000000
