72

Li	  36.2326000000	  20.6823000000	  14.7614000000
O	  37.1303000000	  20.1562000000	  16.5389000000
O	  38.2896000000	  18.7848000000	  17.8815000000
C	  37.5479000000	  20.9058000000	  17.6490000000
C	  38.7206000000	  20.1082000000	  18.2708000000
C	  37.3471000000	  18.8477000000	  16.8500000000
H	  37.5057000000	  21.9647000000	  17.4102000000
H	  36.8052000000	  20.7820000000	  18.3606000000
H	  39.6898000000	  20.3187000000	  17.7927000000
H	  38.9286000000	  20.2940000000	  19.3579000000
H	  36.4193000000	  18.3479000000	  17.0394000000
H	  37.7437000000	  18.4846000000	  15.9292000000
O	  40.0207000000	  20.8866000000	  11.9715000000
O	  37.7390000000	  22.3719000000	  12.7046000000
O	  39.8893000000	  18.2571000000	  11.7724000000
O	  35.7523000000	  22.5325000000	  14.7851000000
O	  41.5330000000	  15.4288000000	  11.8896000000
C	  40.0533000000	  22.2470000000	  12.3529000000
C	  41.2092000000	  20.2076000000	  12.2670000000
C	  38.7883000000	  22.9386000000	  11.9061000000
C	  41.2255000000	  18.7910000000	  11.6331000000
C	  36.3688000000	  22.6941000000	  12.2934000000
C	  39.7180000000	  16.9802000000	  11.2518000000
C	  35.7522000000	  23.3520000000	  13.5535000000
C	  40.2550000000	  15.8833000000	  12.2287000000
C	  35.0514000000	  23.0604000000	  15.8674000000
C	  42.0134000000	  14.4350000000	  12.8257000000
H	  40.1834000000	  22.5362000000	  13.3466000000
H	  40.8533000000	  22.6190000000	  11.7482000000
H	  42.0522000000	  20.7314000000	  11.8248000000
H	  41.4153000000	  20.2216000000	  13.3587000000
H	  38.9629000000	  23.9677000000	  12.0493000000
H	  38.6598000000	  22.6491000000	  10.8188000000
H	  41.5161000000	  18.9244000000	  10.5972000000
H	  41.9947000000	  18.2570000000	  12.1747000000
H	  36.3837000000	  23.4772000000	  11.5610000000
H	  35.6758000000	  21.8601000000	  11.8971000000
H	  38.7089000000	  16.7938000000	  11.2846000000
H	  39.9443000000	  16.9308000000	  10.1996000000
H	  36.4424000000	  24.1379000000	  13.8029000000
H	  34.7525000000	  23.8184000000	  13.3340000000
H	  40.2371000000	  16.2301000000	  13.2986000000
H	  39.5448000000	  15.0381000000	  12.3076000000
H	  35.2387000000	  22.5587000000	  16.8261000000
H	  35.5144000000	  24.0503000000	  16.0322000000
H	  34.0199000000	  23.1892000000	  15.8162000000
H	  43.0294000000	  14.0456000000	  12.4967000000
H	  42.2657000000	  14.7920000000	  13.8211000000
H	  41.4131000000	  13.5257000000	  12.8792000000
N	  31.9836000000	  19.0740000000	  15.1868000000
S	  31.8476000000	  18.5884000000	  13.7003000000
O	  30.5494000000	  18.9443000000	  13.1663000000
O	  33.0877000000	  18.8106000000	  12.9467000000
C	  31.7386000000	  16.7482000000	  14.0425000000
F	  31.3682000000	  16.0382000000	  12.9713000000
F	  31.0300000000	  16.4012000000	  15.1083000000
F	  32.9959000000	  16.2821000000	  14.2971000000
S	  33.1134000000	  19.9480000000	  15.8067000000
O	  32.7824000000	  21.1806000000	  16.4085000000
O	  34.4185000000	  19.8854000000	  15.1092000000
C	  33.4715000000	  18.9705000000	  17.3408000000
F	  32.5232000000	  19.0875000000	  18.2778000000
F	  33.6856000000	  17.7163000000	  17.2137000000
F	  34.4862000000	  19.4265000000	  17.9939000000
S	  35.7839000000	   8.9784600000	  16.0666000000
S	  35.2128000000	  10.5473000000	  17.2996000000
S	  36.2348000000	  12.2996000000	  16.7718000000
S	  36.9395000000	  16.0549000000	  14.1425000000
S	  36.2479000000	  17.6375000000	  13.1051000000
S	  37.2582000000	  19.4657000000	  13.5861000000
S	  35.8992000000	  15.5062000000	  15.8740000000
S	  34.8888000000	  13.7186000000	  15.8753000000
