39

Li	  44.8716000000	  56.1397000000	  29.1573000000
O	  43.8955000000	  53.0227000000	  32.0424000000
O	  44.3566000000	  54.5378000000	  30.4011000000
C	  42.6569000000	  53.7124000000	  31.8724000000
C	  43.0145000000	  54.7133000000	  30.8040000000
C	  44.8790000000	  53.7220000000	  31.4378000000
H	  41.9193000000	  52.8922000000	  31.6130000000
H	  42.2086000000	  54.2085000000	  32.7703000000
H	  42.2706000000	  54.7713000000	  29.9859000000
H	  43.1044000000	  55.6762000000	  31.2949000000
H	  45.3535000000	  54.3046000000	  32.1697000000
H	  45.6490000000	  53.0032000000	  31.1273000000
O	  43.4146000000	  59.3359288659	  31.6978000000
O	  43.8954000000	  57.6096000000	  30.3126000000
C	  42.2446000000	  58.7708000000	  31.1779000000
C	  42.7609000000	  58.2301000000	  29.8156000000
C	  44.4960000000	  58.5416000000	  31.2228000000
H	  41.8306000000	  58.0645000000	  31.7795000000
H	  41.5385000000	  59.5395588659	  31.0715000000
H	  42.1563000000	  57.6429000000	  29.1398000000
H	  43.1480000000	  59.0178000000	  29.1604000000
H	  45.2497000000	  59.1387000000	  30.6534000000
H	  45.0816000000	  57.9408000000	  31.9489000000
S	  46.8136000000	  56.5214000000	  30.2721000000
S	  47.8284000000	  56.3961000000	  32.1271000000
S	  49.8400000000	  56.8706000000	  31.7464000000
S	  52.7236000000	  60.4383588659	  30.5210000000
S	  53.1127000000	  62.3980588659	  29.7401000000
S	  53.2083000000	  62.2425588659	  27.6111000000
S	  50.8954000000	  60.3599588659	  31.5113000000
S	  50.5455000000	  58.6055000000	  32.7325000000
S	  44.3727000000	  56.6878000000	  26.9723000000
S	  45.3177000000	  54.8215000000	  27.1926000000
S	  43.9644000000	  53.2131000000	  27.4245000000
S	  41.8469000000	  49.3869000000	  26.1241000000
S	  41.2846000000	  48.2098000000	  24.5357000000
S	  39.9343000000	  46.7750000000	  25.0455000000
S	  43.7997000000	  50.2053000000	  25.7012000000
S	  43.6326000000	  52.3692000000	  25.5633000000
