46

Li	  25.8705000000	  53.6736000000	   9.5874300000
O	  25.9516000000	  51.7181000000	   9.9683700000
O	  26.0482000000	  49.4761000000	  10.0570000000
C	  24.6811000000	  51.1553000000	   9.6313500000
C	  25.0648000000	  49.8585000000	   9.0858300000
C	  26.6895000000	  50.6651000000	  10.4669000000
H	  24.0489000000	  51.1682000000	  10.4940000000
H	  24.1503000000	  51.7919000000	   8.8718700000
H	  24.2901000000	  49.1310000000	   9.0651300000
H	  25.3989000000	  50.0036000000	   8.0510500000
H	  27.7107000000	  50.6880000000	  10.1040000000
H	  26.7456000000	  50.7255000000	  11.5196000000
O	  25.7118000000	  54.0473000000	   7.6663600000
O	  27.0660000000	  54.8945000000	   6.0680400000
C	  25.9206000000	  53.0039000000	   6.7649600000
C	  26.4801000000	  53.6290000000	   5.5517200000
C	  26.1151000000	  55.2143000000	   7.0135500000
H	  26.6249000000	  52.1833000000	   7.2037100000
H	  25.0503000000	  52.4602000000	   6.4091100000
H	  27.1128000000	  53.0145000000	   4.8964300000
H	  25.6598000000	  53.9575000000	   4.9960000000
H	  25.2500000000	  55.6586000000	   6.5197800000
H	  26.5224000000	  55.7693000000	   7.7710000000
N	  30.0707000000	  52.9202000000	   7.7990100000
S	  30.2848000000	  51.4379000000	   7.2825700000
O	  29.6621000000	  50.4813000000	   8.0841300000
O	  30.4142000000	  51.2380000000	   5.9087700000
C	  32.1097000000	  51.1897000000	   7.8565000000
F	  32.8178000000	  52.2390000000	   7.4887400000
F	  32.6833000000	  50.1831000000	   7.2641200000
F	  32.2588000000	  51.0338000000	   9.1568400000
S	  29.4037000000	  53.4825000000	   9.1132600000
O	  29.7926000000	  52.9201000000	  10.4028000000
O	  27.9931000000	  53.6520000000	   8.9348900000
C	  30.1147000000	  55.2127000000	   9.1381200000
F	  29.8808000000	  55.8354000000	  10.3241000000
F	  31.4371000000	  55.0915000000	   8.9719600000
F	  29.6402000000	  55.9780000000	   8.1512900000
S	  19.3707000000	  61.8431488659	   8.0793300000
S	  21.1569000000	  60.7790788659	   7.9971200000
S	  21.0890000000	  59.2881718659	   6.3993800000
S	  22.1027000000	  55.6409000000	   9.2785800000
S	  23.5199000000	  54.2402000000	   9.9561700000
S	  25.2222000000	  55.2740000000	  10.7081000000
S	  21.9118000000	  55.9001000000	   7.1280200000
S	  22.5634000000	  57.8247000000	   6.6057800000
