46

Li	  16.3917000000	  39.8569000000	   5.0063100000
O	  14.9015000000	  38.7888000000	   4.4696300000
O	  15.9721000000	  40.6083000000	   3.1253800000
O	  16.3769000000	  38.5834000000	   6.3425300000
O	  16.7018000000	  43.6500000000	   2.3741200000
O	  18.1003000000	  39.0034000000	   4.3822200000
C	  13.9448000000	  39.5861000000	   3.8056500000
C	  14.2708000000	  38.1522000000	   5.5826200000
C	  14.7185000000	  40.1650000000	   2.6347200000
C	  15.4488000000	  37.5106000000	   6.3595000000
C	  16.6689000000	  41.2579000000	   2.0413600000
C	  17.6784000000	  38.1483000000	   6.5763800000
C	  16.2180000000	  42.6434000000	   1.5560200000
C	  18.4046000000	  37.9069000000	   5.2602900000
C	  15.8400000000	  44.1391000000	   3.3621300000
C	  18.5746000000	  38.7658000000	   3.0278300000
H	  13.0869000000	  39.0164000000	   3.4608300000
H	  13.6172000000	  40.4147000000	   4.4032500000
H	  13.6767000000	  38.9644000000	   6.1200500000
H	  13.5394000000	  37.4725000000	   5.1873000000
H	  14.8999000000	  39.3509000000	   1.9344200000
H	  14.0752000000	  40.9073000000	   2.1956700000
H	  15.1333000000	  37.1903000000	   7.3005500000
H	  15.8861000000	  36.6336000000	   5.9367600000
H	  17.6880000000	  41.4082000000	   2.3486700000
H	  16.8746000000	  40.5631000000	   1.1853600000
H	  18.0693000000	  38.9798000000	   7.2053000000
H	  17.7876000000	  37.2601000000	   7.1600700000
H	  16.8378000000	  42.8046000000	   0.7084905576
H	  15.1203000000	  42.5995000000	   1.3120700000
H	  19.5148000000	  37.8200000000	   5.4904400000
H	  17.9992000000	  36.9789000000	   4.7879200000
H	  16.4059000000	  44.8186000000	   4.0477100000
H	  15.0336000000	  44.7077000000	   2.9258800000
H	  15.5074000000	  43.3652000000	   4.0641500000
H	  19.3032000000	  37.9129000000	   2.9854100000
H	  17.8506000000	  38.6017000000	   2.1622600000
H	  18.9939000000	  39.7611000000	   2.8066000000
S	  12.3945000000	  44.7526000000	  13.8202000000
S	  14.5807000000	  44.8659000000	  13.5710000000
S	  15.1119000000	  43.8668000000	  11.8112000000
S	  15.0356000000	  40.2569000000	   8.9104600000
S	  14.9474000000	  41.7016000000	   7.3434000000
S	  16.8659000000	  41.5716000000	   6.2969400000
S	  14.2433000000	  40.8045000000	  10.7632000000
S	  15.6566000000	  41.8869000000	  12.0317000000
