28

Li	  19.2713000000	  32.9733000000	  48.9254000000
O	  17.2860000000	  32.6473000000	  49.0797000000
O	  15.1215000000	  31.9281000000	  48.9460000000
C	  16.6094000000	  33.5470000000	  48.2624000000
C	  15.4112000000	  32.7129000000	  47.7549000000
C	  16.4195000000	  31.5931000000	  49.3519000000
H	  16.3432000000	  34.4120000000	  48.9087000000
H	  17.1702000000	  33.8633000000	  47.4117000000
H	  14.5814000000	  33.3529000000	  47.4042000000
H	  15.7779000000	  32.1289000000	  46.8742000000
H	  16.6686000000	  30.6483000000	  48.7823000000
H	  16.5385000000	  31.2014000000	  50.3933000000
S	  14.5600000000	  31.8968000000	  43.1630000000
S	  14.5923000000	  29.9300000000	  43.9761000000
S	  16.5696000000	  29.3049000000	  44.2878000000
S	  19.9343000000	  30.1537000000	  48.1506000000
S	  19.3663000000	  30.5005000000	  50.0846000000
S	  20.1962000000	  32.3560000000	  50.7172000000
S	  18.6032000000	  30.7575000000	  46.6470000000
S	  17.0524000000	  29.3576000000	  46.3460000000
S	  16.7146000000	  41.6240000000	  53.4535000000
S	  17.1947000000	  40.2780000000	  54.8689000000
S	  17.0503000000	  38.3024000000	  54.1545000000
S	  18.5917000000	  36.2130000000	  50.1800000000
S	  19.4200000000	  36.2602000000	  48.2132000000
S	  20.1723000000	  34.4421000000	  47.4866000000
S	  19.3217000000	  37.7833000000	  51.3712000000
S	  18.9181000000	  37.4884000000	  53.4075000000
