31

Li	  16.2571000000	  35.5172000000	  49.4175000000
O	  19.6939000000	  34.6737000000	  47.2328000000
O	  18.0935000000	  35.4167000000	  48.7793000000
C	  20.3157000000	  34.6109000000	  48.4877000000
C	  19.2941000000	  35.3297000000	  49.5089000000
C	  18.5748000000	  35.5591000000	  47.4482000000
H	  20.5608000000	  33.5953000000	  48.7958000000
H	  21.3508000000	  35.0892000000	  48.5500000000
H	  19.0278000000	  34.8382000000	  50.4072000000
H	  19.7243000000	  36.1897000000	  49.8523000000
H	  19.0267000000	  36.5444000000	  47.3493000000
H	  17.7065000000	  35.5091000000	  46.7572000000
O	  15.4996000000	  36.4637000000	  48.1455000000
O	  15.6538000000	  37.7920000000	  46.4122000000
C	  14.2645000000	  36.2392000000	  47.4808000000
C	  14.6601000000	  36.7927000000	  46.1414000000
C	  15.8129000000	  37.7589000000	  47.7614000000
H	  13.9164000000	  35.2535000000	  47.3960000000
H	  13.5024000000	  36.8356000000	  48.0198000000
H	  15.1233000000	  36.0418000000	  45.4894000000
H	  13.7431000000	  37.0759000000	  45.6891000000
H	  15.1944000000	  38.5212000000	  48.3823000000
H	  16.7517000000	  37.9319000000	  48.0176000000
S	  13.7560000000	  46.8300000000	  50.3243000000
S	  15.2965000000	  46.3833000000	  51.7421000000
S	  15.2098000000	  44.4621000000	  52.4945000000
S	  16.9254000000	  39.8001000000	  51.5586000000
S	  15.3187000000	  38.3747000000	  51.3637000000
S	  15.9848000000	  36.3630000000	  51.4659000000
S	  16.1592000000	  41.6012000000	  50.7145000000
S	  16.7208000000	  43.3647000000	  51.7177000000
