54

Li	  32.7336000000	  26.2859000000	  58.0694000000
O	  29.1815000000	  25.9941000000	  58.6281000000
O	  29.1636000000	  24.2349000000	  61.0027494424
O	  31.2803000000	  25.9907000000	  56.6769000000
O	  31.1334000000	  22.5751000000	  61.6436294424
O	  33.9226000000	  26.3041000000	  56.5908000000
C	  28.4487000000	  26.2064000000	  59.8313594424
C	  29.3808000000	  27.1330000000	  57.8129000000
C	  28.0850000000	  24.7924000000	  60.3198194424
C	  29.9742000000	  26.6143000000	  56.5352000000
C	  28.8049000000	  23.0657000000	  61.6790994424
C	  32.0186000000	  25.9410000000	  55.5043000000
C	  30.0273000000	  22.6856000000	  62.5053494424
C	  33.3514000000	  25.2469000000	  55.8637000000
C	  32.1415000000	  21.7095000000	  62.2797894424
C	  35.1321000000	  25.9948000000	  57.1527000000
H	  28.9865000000	  26.7825000000	  60.5935694424
H	  27.5906000000	  26.7477000000	  59.5163594424
H	  28.4603000000	  27.6926000000	  57.5595000000
H	  30.0819000000	  27.8384000000	  58.2534000000
H	  27.2270000000	  24.6377000000	  61.0107394424
H	  27.9692000000	  24.0715000000	  59.4743294424
H	  29.2361000000	  25.8183000000	  56.2867000000
H	  29.9983000000	  27.3915000000	  55.7710000000
H	  27.9249000000	  23.1902000000	  62.3556194424
H	  28.6759000000	  22.2470000000	  61.0304094424
H	  31.4983000000	  25.2414000000	  54.8105000000
H	  32.2464000000	  26.8696000000	  54.9296000000
H	  30.0745000000	  23.3958000000	  63.2961694424
H	  29.7385000000	  21.7261000000	  63.0753994424
H	  33.2900000000	  24.3544000000	  56.4307000000
H	  33.8982000000	  24.9173000000	  54.9898000000
H	  31.7580000000	  20.7734000000	  62.6751394424
H	  32.9033000000	  21.4962000000	  61.5985394424
H	  32.6600000000	  22.1934000000	  63.0726094424
H	  35.3590000000	  26.6951000000	  57.9840000000
H	  35.1868000000	  24.9719000000	  57.5667000000
H	  35.9212000000	  26.0350000000	  56.4637000000
S	  32.1817000000	  24.8779000000	  59.5480894424
S	  33.6141000000	  23.3001000000	  59.6132994424
S	  34.0682000000	  22.0877000000	  57.9203000000
S	  37.2787000000	  18.2734000000	  58.6266000000
S	  37.2543000000	  16.0297000000	  58.6539000000
S	  39.0431000000	  15.2299000000	  57.7828000000
S	  35.6210000000	  18.9507000000	  57.4538000000
S	  34.1800000000	  20.0760000000	  58.4948000000
S	  30.4411000000	  33.4741000000	  49.8104000000
S	  31.8422000000	  31.8335000000	  49.7459000000
S	  31.4844000000	  30.0747000000	  50.8182000000
S	  32.0087000000	  30.9076000000	  55.9858000000
S	  33.6098000000	  29.9275000000	  56.9645000000
S	  32.9220000000	  28.5518000000	  58.5777000000
S	  31.2540000000	  29.6285000000	  54.4999000000
S	  32.4524000000	  29.8002000000	  52.7363000000
