53

Li	   9.8982800000	  49.7031000000	  21.6459000000
O	  11.0050000000	  51.1632000000	  21.6222000000
O	  11.5615000000	  48.8681000000	  21.7427000000
O	   8.3639100000	  51.0538000000	  22.0741000000
O	   9.8705800000	  49.2401000000	  23.6766000000
O	   7.5696800000	  48.7129000000	  21.6851000000
C	  12.3606000000	  51.0083000000	  21.6554000000
C	  10.5074000000	  52.2755000000	  22.2739000000
C	  12.6241000000	  49.5797000000	  21.1497000000
C	   9.0241700000	  52.2965000000	  21.8142000000
C	  11.9616000000	  48.4189000000	  23.0407000000
C	   7.0971500000	  51.0679000000	  21.4275000000
C	  10.7182000000	  48.0866000000	  23.8685000000
C	   6.5282800000	  49.6354000000	  21.3782000000
C	   8.6375100000	  49.0124000000	  24.4578000000
C	   7.1687500000	  47.4265000000	  21.3145000000
H	  12.9090000000	  51.7646000000	  21.0545000000
H	  12.7665000000	  51.2059000000	  22.6857000000
H	  10.7474000000	  52.2400000000	  23.3403000000
H	  11.0192000000	  53.1389000000	  21.9037000000
H	  12.6371000000	  49.6749000000	  20.0259000000
H	  13.5705000000	  49.2669000000	  21.4099000000
H	   8.4800800000	  53.0717000000	  22.3257000000
H	   9.0229100000	  52.4978000000	  20.7525000000
H	  12.6277000000	  47.5707000000	  23.0090000000
H	  12.4980000000	  49.1669000000	  23.5824000000
H	   6.3218300000	  51.7094000000	  22.0385000000
H	   7.1491200000	  51.3340000000	  20.3763000000
H	  10.2991000000	  47.1236000000	  23.5517000000
H	  11.0652000000	  48.0123000000	  24.9183000000
H	   5.8015400000	  49.5734000000	  22.1962000000
H	   6.0323200000	  49.3712000000	  20.3898000000
H	   8.0576500000	  49.8904000000	  24.4517000000
H	   8.0036600000	  48.2852000000	  24.0916000000
H	   8.8430900000	  48.7927000000	  25.4835000000
H	   7.4295000000	  47.4085000000	  20.2263000000
H	   7.8944800000	  46.7951000000	  21.7333000000
H	   6.1892400000	  47.1226000000	  21.6402000000
N	  10.2105000000	  50.9207000000	  17.9399000000
S	   9.2352300000	  49.8115000000	  18.4748000000
O	   9.6249000000	  49.2807000000	  19.7263000000
O	   7.8394200000	  50.0321000000	  18.2491000000
C	   9.7284800000	  48.4290000000	  17.3981000000
F	  10.9844000000	  48.1077000000	  17.6700000000
F	   9.5804900000	  48.6485000000	  16.1066000000
F	   8.9992200000	  47.3378000000	  17.6364000000
S	   9.8156900000	  52.3776000000	  17.4554000000
O	   8.9105400000	  53.0403000000	  18.3224000000
O	   9.6039600000	  52.5155000000	  16.0699000000
C	  11.4442000000	  53.2076000000	  17.8023000000
F	  11.5275000000	  54.4664000000	  17.4207000000
F	  11.8361000000	  53.2282000000	  19.0763000000
F	  12.4240000000	  52.6049000000	  17.2426000000
