60

Li	  27.8097000000	   5.8809500000	  37.3773000000
O	  31.9572000000	   4.6834700000	  37.7947000000
O	  30.0368000000	   5.6086300000	  37.3846000000
C	  32.3568000000	   6.0002300000	  37.5300000000
C	  31.0447000000	   6.5190600000	  37.0555000000
C	  30.6272000000	   4.7029700000	  38.1853000000
H	  32.7597000000	   6.5131900000	  38.4057000000
H	  33.0875000000	   5.9940400000	  36.7011000000
H	  30.8836000000	   7.5306800000	  37.3771000000
H	  31.0324000000	   6.5898500000	  35.9691000000
H	  30.2839000000	   3.7158100000	  37.8724000000
H	  30.5734000000	   4.9649300000	  39.1691000000
O	  24.6016000000	   8.0558700000	  35.3599000000
O	  26.2552000000	   6.7934300000	  36.1221000000
C	  23.9781000000	   7.4152300000	  36.4818000000
C	  25.1064000000	   6.3969000000	  36.8252000000
C	  25.6235000000	   7.3039200000	  34.9562000000
H	  23.7541000000	   8.2313000000	  37.2433000000
H	  23.0633000000	   7.0055800000	  36.0875000000
H	  25.3103000000	   6.3240400000	  37.8416000000
H	  24.8733000000	   5.3856900000	  36.4597000000
H	  25.3194000000	   6.3967700000	  34.3124000000
H	  26.2704000000	   7.8885000000	  34.3632000000
O	  27.7179000000	   3.9861000000	  37.5293000000
O	  28.2342000000	   5.2647900000	  35.3118000000
O	  27.2379000000	   5.9279500000	  39.1426000000
O	  28.9993000000	   4.8191000000	  32.1428000000
O	  28.3919000000	   7.7652400000	  37.7539000000
C	  27.1855000000	   3.3277100000	  36.3366000000
C	  26.9010000000	   3.6975900000	  38.6825000000
C	  28.0090000000	   3.8673600000	  35.1623000000
C	  27.4949000000	   4.6639000000	  39.7448000000
C	  29.0137000000	   5.8644200000	  34.2622000000
C	  27.7154000000	   7.0461800000	  39.8713000000
C	  28.3103000000	   5.7656600000	  32.8841000000
C	  27.6414000000	   8.1918200000	  38.8644000000
C	  28.1211000000	   4.0230100000	  31.4350000000
C	  28.5420000000	   8.7972500000	  36.7897000000
H	  27.3736000000	   2.2436300000	  36.4579000000
H	  26.1890000000	   3.5011900000	  36.0655000000
H	  25.9072000000	   4.0649500000	  38.4924000000
H	  26.8408000000	   2.7036600000	  39.0539000000
H	  28.9313000000	   3.3149000000	  35.3042000000
H	  27.6200000000	   3.5586800000	  34.2162000000
H	  26.9736000000	   4.5585100000	  40.6393000000
H	  28.5447000000	   4.4155400000	  39.7837000000
H	  29.1890000000	   6.8678500000	  34.5161000000
H	  30.0890000000	   5.4738700000	  34.1852000000
H	  27.2146000000	   7.1488800000	  40.8621000000
H	  28.8372000000	   6.8621400000	  40.0884000000
H	  27.2248000000	   5.6568200000	  32.9853000000
H	  28.4620000000	   6.7032000000	  32.2842000000
H	  26.5622000000	   8.2822800000	  38.6248000000
H	  28.0006000000	   9.0937800000	  39.4270000000
H	  27.5173000000	   3.4678500000	  32.1688000000
H	  27.4171000000	   4.6264900000	  30.7799000000
H	  28.6479000000	   3.1408000000	  30.8877000000
H	  28.9201000000	   8.4547900000	  35.8338000000
H	  27.5493000000	   9.2068400000	  36.5657000000
H	  29.1599000000	   9.6251000000	  37.1331000000
