54

Li	  35.3512000000	  24.6453000000	  56.2614000000
O	  33.3037000000	  24.6362000000	  55.8533000000
O	  32.3421000000	  21.9818000000	  55.8182000000
O	  35.4147000000	  26.2537000000	  55.2489000000
O	  33.2259000000	  20.1568000000	  54.0726000000
O	  37.5776000000	  25.1626000000	  56.7276000000
C	  32.1686000000	  24.1930000000	  56.5654000000
C	  33.1059000000	  25.8504000000	  55.1497000000
C	  32.2312000000	  22.8290000000	  56.9495000000
C	  34.3840000000	  26.0792000000	  54.3125000000
C	  32.0053000000	  20.6297000000	  56.0236000000
C	  36.7617000000	  26.2899000000	  54.7446000000
C	  32.0180000000	  19.8458000000	  54.6821000000
C	  37.7236000000	  26.3130000000	  55.9193000000
C	  33.6429000000	  19.2121000000	  53.0585000000
C	  38.5131000000	  25.1989000000	  57.7009000000
H	  31.9707000000	  24.8341000000	  57.4305000000
H	  31.2607000000	  24.3349000000	  55.9347000000
H	  32.2256000000	  25.8599000000	  54.5253000000
H	  33.0092000000	  26.7135000000	  55.8771000000
H	  33.0840000000	  22.6624000000	  57.5729000000
H	  31.2973000000	  22.6011000000	  57.4499000000
H	  34.6347000000	  25.3616000000	  53.5593000000
H	  34.2323000000	  27.0569000000	  53.8135000000
H	  32.6927000000	  20.1636000000	  56.7928000000
H	  31.0517000000	  20.5121000000	  56.4675000000
H	  36.7859000000	  25.3261000000	  54.2415000000
H	  37.0100000000	  27.1591000000	  54.0704000000
H	  31.9293000000	  18.6924000000	  54.9850000000
H	  31.1258000000	  20.1760000000	  54.1853000000
H	  38.7171000000	  26.3028000000	  55.4603000000
H	  37.6278000000	  27.2582000000	  56.5550000000
H	  34.6446000000	  19.3769000000	  52.6705000000
H	  33.7354000000	  18.1960000000	  53.4480000000
H	  32.9903000000	  19.2946000000	  52.1657000000
H	  38.6825000000	  24.1664000000	  58.1423000000
H	  39.5271000000	  25.3331000000	  57.3664000000
H	  38.2258000000	  25.9224000000	  58.4282000000
S	  35.4629000000	  22.7836000000	  54.9953000000
S	  36.7544000000	  22.0181000000	  56.5504000000
S	  35.8280000000	  20.8604000000	  58.0108000000
S	  34.3045000000	  16.6950000000	  56.0185000000
S	  34.3809000000	  14.5201000000	  55.9223000000
S	  36.2616000000	  13.8200000000	  55.2859000000
S	  34.6860000000	  17.5338000000	  58.0544000000
S	  36.2652000000	  18.8534000000	  57.9496000000
S	  33.3637000000	  35.5254000000	  55.2546000000
S	  34.4505000000	  33.7609000000	  54.9014000000
S	  35.1159000000	  32.8331000000	  56.7088000000
S	  35.8381000000	  28.6590000000	  58.4100000000
S	  34.8094000000	  27.0537000000	  59.3124514424
S	  35.0406000000	  25.2341000000	  58.4022000000
S	  34.4840000000	  29.4479000000	  57.0021000000
S	  33.8018000000	  31.3388000000	  57.4884000000
