68

Li	  55.1892000000	  42.9345000000	  45.2203000000
O	  53.4882000000	  42.5052000000	  46.2611000000
O	  55.2927000000	  44.5209000000	  46.5279000000
O	  54.2443000000	  40.9136000000	  44.3735000000
O	  58.1798000000	  45.7873000000	  46.0745000000
O	  55.9628000000	  42.2972000000	  43.0131000000
C	  53.6674000000	  43.0897000000	  47.4948000000
C	  53.4046000000	  41.1269000000	  46.4716000000
C	  54.0329000000	  44.5198000000	  47.1579000000
C	  53.1497000000	  40.4563000000	  45.1581000000
C	  55.6959000000	  45.8642000000	  46.2711000000
C	  54.1190000000	  40.9023000000	  42.9557000000
C	  56.9179000000	  45.7821000000	  45.3596000000
C	  55.6283000000	  40.9939000000	  42.5485000000
C	  58.4536000000	  44.4877000000	  46.5866000000
C	  57.1692000000	  42.7602000000	  42.3424000000
H	  52.7757000000	  42.9184000000	  48.1124000000
H	  54.5503000000	  42.7081000000	  48.0620000000
H	  54.3040000000	  40.6251000000	  46.9772000000
H	  52.5602000000	  40.9517000000	  47.0885000000
H	  53.2570000000	  44.9052000000	  46.5355000000
H	  53.9215000000	  45.0977000000	  48.0991000000
H	  53.0597000000	  39.3453000000	  45.1934000000
H	  52.2481000000	  40.9012000000	  44.7897000000
H	  54.8126000000	  46.2940000000	  45.7273000000
H	  55.7647000000	  46.3714000000	  47.1304000000
H	  53.7285000000	  40.0312000000	  42.5402000000
H	  53.5388000000	  41.8306000000	  42.7208000000
H	  56.8029000000	  44.9821000000	  44.5604000000
H	  56.9574000000	  46.6727000000	  44.7044000000
H	  56.2916000000	  40.2084000000	  43.0049000000
H	  55.7025000000	  41.0133000000	  41.4383000000
H	  59.5105218150	  44.4305000000	  46.9016000000
H	  57.7812000000	  44.2204000000	  47.4221000000
H	  58.1741000000	  43.6279000000	  45.8747000000
H	  57.2269000000	  43.8511000000	  42.3327000000
H	  58.0613000000	  42.3750000000	  42.8180000000
H	  57.2323000000	  42.3721000000	  41.3375000000
N	  53.3016000000	  44.9117000000	  41.6434000000
S	  54.6604000000	  45.3999000000	  40.9963000000
O	  55.5477000000	  46.0834000000	  41.8998000000
O	  55.2379000000	  44.4316000000	  40.0925000000
C	  54.2018000000	  46.8853000000	  39.9190000000
F	  55.2628000000	  47.4725000000	  39.4286000000
F	  53.4396000000	  47.7616000000	  40.6101000000
F	  53.5367000000	  46.5710000000	  38.7865000000
S	  52.9353000000	  44.5714000000	  43.1304000000
O	  54.0468000000	  44.3019000000	  44.0163000000
O	  51.7180000000	  43.8189000000	  43.2803000000
C	  52.2553000000	  46.2223000000	  43.6605000000
F	  53.0947000000	  47.2291000000	  43.5358000000
F	  51.1498000000	  46.4660000000	  42.9133000000
F	  51.8028000000	  46.3032000000	  44.8724000000
N	  57.3313000000	  41.6298000000	  48.4870000000
S	  56.6019000000	  40.9998000000	  49.6689000000
O	  55.2224000000	  40.7069000000	  49.4403000000
O	  57.4549000000	  40.1187000000	  50.3707000000
C	  56.4829000000	  42.4579000000	  50.7153000000
F	  55.8166000000	  43.4155000000	  50.1635000000
F	  57.7012000000	  42.9647000000	  51.0175000000
F	  55.9198000000	  42.1948000000	  51.8289000000
S	  57.3309000000	  40.9475000000	  47.0350000000
O	  56.9388000000	  41.8154000000	  45.9823000000
O	  56.8915000000	  39.5493000000	  47.0474000000
C	  59.1243000000	  40.6802000000	  46.9340000000
F	  59.4892318150	  40.4446000000	  45.6403000000
F	  59.7632418150	  41.7301000000	  47.4543000000
F	  59.5145318150	  39.6955000000	  47.6377000000
