90

Li	  20.8601000000	  21.8064000000	  46.4946000000
O	  21.8074000000	  25.3826000000	  47.1716000000
O	  19.6748000000	  23.2361000000	  46.5875000000
O	  23.2890000000	  27.2246000000	  45.8856000000
O	  19.4022000000	  20.7821000000	  45.8140000000
O	  23.1200000000	  29.8660000000	  44.5102000000
C	  20.9696000000	  24.6842000000	  48.0888000000
C	  23.0393000000	  25.7745000000	  47.7637000000
C	  19.6393000000	  24.3737000000	  47.4453000000
C	  23.9317000000	  26.1757000000	  46.6005000000
C	  18.4224000000	  23.0061000000	  45.8687000000
C	  24.3050000000	  27.9142000000	  45.1452000000
C	  18.6035000000	  21.6981000000	  45.0954000000
C	  23.6941000000	  28.6766000000	  44.0233000000
C	  18.6387000000	  19.9044000000	  46.6423000000
C	  22.5195000000	  30.6570000000	  43.4916000000
H	  21.4736000000	  23.7570000000	  48.4138000000
H	  20.7218000000	  25.2877000000	  48.9397000000
H	  22.9324000000	  26.6677000000	  48.4337000000
H	  23.4112000000	  24.9788000000	  48.3659000000
H	  18.8678000000	  24.2872000000	  48.2102000000
H	  19.3774000000	  25.2826000000	  46.8071000000
H	  24.8873000000	  26.4259000000	  46.9791000000
H	  24.0212000000	  25.3438000000	  45.9405000000
H	  17.5780000000	  23.0529000000	  46.5158000000
H	  18.2552000000	  23.8222000000	  45.1521000000
H	  24.9641000000	  28.3653000000	  45.7584000000
H	  25.0331000000	  27.2702000000	  44.7476000000
H	  17.6643000000	  21.2873000000	  44.6753000000
H	  19.1487000000	  21.9800000000	  44.2570000000
H	  24.3742000000	  28.9509000000	  43.1961000000
H	  22.8820000000	  28.1406000000	  43.4706000000
H	  18.0062000000	  19.2827000000	  46.0059000000
H	  19.3267000000	  19.2667000000	  47.1839000000
H	  18.0470000000	  20.5403000000	  47.2804000000
H	  21.6679000000	  30.2580000000	  43.0081000000
H	  22.1801000000	  31.5939000000	  43.8938000000
H	  23.2491000000	  30.8944000000	  42.7833000000
O	  21.8758000000	  25.1202000000	  44.0948000000
O	  22.2653000000	  22.5996000000	  45.6188000000
O	  20.1803000000	  26.9958000000	  44.8472000000
O	  22.3622000000	  20.0646000000	  46.7710000000
O	  20.4750000000	  27.9433000000	  47.2383000000
C	  22.7463000000	  24.0213000000	  43.6711000000
C	  20.6497000000	  25.1658000000	  43.3926000000
C	  22.1801000000	  22.6747000000	  44.1978000000
C	  20.1559000000	  26.5499000000	  43.5318000000
C	  23.4162000000	  22.0445000000	  46.2238000000
C	  19.7964000000	  28.3934000000	  44.9892000000
C	  23.5401000000	  20.5072000000	  46.0596000000
C	  19.7378000000	  28.8631000000	  46.4118000000
C	  22.1680000000	  18.6443000000	  46.5859000000
C	  20.2344000000	  28.0348000000	  48.6295000000
H	  22.6811000000	  24.0256000000	  42.5874000000
H	  23.7273000000	  24.2478000000	  44.0389000000
H	  20.7536000000	  24.9349000000	  42.3392000000
H	  19.9128000000	  24.4858000000	  43.7986000000
H	  21.0359000000	  22.6034000000	  44.0515000000
H	  22.5754000000	  21.7801000000	  43.7783000000
H	  20.7392000000	  27.1578000000	  42.8850000000
H	  19.1394000000	  26.6595000000	  43.1128000000
H	  24.3226000000	  22.5362000000	  45.8991000000
H	  23.3261000000	  22.2238000000	  47.2866000000
H	  20.4896000000	  28.9971000000	  44.3925000000
H	  18.8537000000	  28.3907000000	  44.4984000000
H	  23.5142000000	  20.2192000000	  45.0611000000
H	  24.3309000000	  20.0551000000	  46.6397000000
H	  20.2929000000	  29.7855000000	  46.5532000000
H	  18.7024000000	  28.9444000000	  46.8295000000
H	  21.9597000000	  18.4262000000	  45.4914000000
H	  23.1114000000	  18.1462000000	  46.8572000000
H	  21.3592000000	  18.2883000000	  47.2766000000
H	  19.2166000000	  27.9376000000	  48.7789000000
H	  20.9227000000	  27.3337000000	  49.2280000000
H	  20.4354000000	  29.0931000000	  48.9300000000
N	  21.7092000000	  22.1181000000	  50.6804000000
S	  22.6867000000	  21.8638000000	  51.8647000000
O	  22.0029000000	  21.8995000000	  53.0874000000
O	  23.5921000000	  20.7752000000	  51.6569000000
C	  23.6856000000	  23.4073000000	  51.9937000000
F	  24.4796000000	  23.3295000000	  53.0413000000
F	  22.8869000000	  24.4446000000	  52.0975000000
F	  24.5551000000	  23.6870000000	  51.0139000000
S	  20.7498000000	  21.1084000000	  49.8791000000
O	  20.8969000000	  19.7094000000	  50.1710000000
O	  20.5259000000	  21.4240000000	  48.5040000000
C	  19.0382000000	  21.3754000000	  50.6577000000
F	  18.1678000000	  20.4808000000	  50.2243000000
F	  19.0729000000	  21.2790000000	  51.9867000000
F	  18.5682000000	  22.6143000000	  50.5675000000
