39

Li	  33.5669000000	  12.8811000000	  58.4182000000
O	  35.4080000000	  12.8807000000	  59.3515324424
O	  37.1453000000	  12.3309000000	  60.7003094424
C	  36.5586000000	  13.3833000000	  58.6580000000
C	  37.7387000000	  12.6809000000	  59.4214194424
C	  35.8013000000	  12.7704000000	  60.6748994424
H	  36.5207000000	  13.0964000000	  57.6057000000
H	  36.6625000000	  14.5165000000	  58.6835000000
H	  37.9718000000	  11.8684000000	  58.8554000000
H	  38.6044000000	  13.3344000000	  59.6273494424
H	  35.8421000000	  13.7716000000	  61.0058394424
H	  35.0904000000	  12.2274000000	  61.2924194424
O	  33.9540000000	  11.3476000000	  57.6547000000
O	  33.2031000000	   9.9898700000	  56.0587000000
C	  35.0886000000	  10.5080000000	  57.4611000000
C	  34.5063000000	   9.5183200000	  56.2977000000
C	  32.8166000000	  10.6610000000	  57.1852000000
H	  35.9464000000	  11.0864000000	  57.1134000000
H	  35.3736000000	  10.0463000000	  58.4194000000
H	  35.1898000000	   9.6677300000	  55.4445000000
H	  34.5480000000	   8.4641200000	  56.6687000000
H	  32.7077000000	   9.9407300000	  57.9810000000
H	  31.9474000000	  11.2650000000	  57.0060000000
S	  34.9601000000	  24.4078000000	  59.0864000000
S	  36.4223000000	  23.2525000000	  58.0541000000
S	  35.3825000000	  21.9172000000	  56.8068000000
S	  32.8345000000	  17.6301000000	  57.7958000000
S	  33.8490000000	  15.7754000000	  58.3195000000
S	  33.3507000000	  14.3120000000	  56.9049000000
S	  33.8961000000	  19.2961000000	  58.5007000000
S	  35.5955000000	  19.9115000000	  57.3955000000
S	  32.2290000000	  12.2451000000	  60.2598194424
S	  30.6271000000	  10.9611000000	  60.7141094424
S	  31.1737000000	   8.8868300000	  60.8538494424
S	  28.8293000000	   4.9642800000	  60.6143294424
S	  27.1804000000	   3.6726000000	  61.0849894424
S	  27.7032000000	   1.8906000000	  61.9938194424
S	  28.2667000000	   6.9203700000	  61.2897894424
S	  29.9202000000	   7.8472600000	  62.2860094424
