28

Li	  14.7180000000	  43.2742000000	  15.9009000000
O	  15.1867000000	  41.2482000000	  16.1039000000
O	  16.2347000000	  39.6428000000	  14.9106000000
C	  14.3769000000	  40.1457000000	  16.1545000000
C	  15.2881000000	  39.0008000000	  15.7025000000
C	  16.4068000000	  40.8909000000	  15.4753000000
H	  13.8611000000	  40.0851000000	  17.0834000000
H	  13.5811000000	  40.3363000000	  15.4580000000
H	  15.7960000000	  38.6621000000	  16.5465000000
H	  14.7659000000	  38.2127000000	  15.1216000000
H	  16.7496000000	  41.5264000000	  14.6139000000
H	  17.0757000000	  40.8831000000	  16.3643000000
S	  16.4961000000	  44.2412000000	  16.6177000000
S	  16.0333000000	  44.2095000000	  14.5584000000
S	  14.0146000000	  44.6265000000	  14.0413000000
S	  12.7406000000	  47.8663000000	  10.1273000000
S	  11.6397000000	  47.1519000000	   8.4918700000
S	   9.9149600000	  48.3310000000	   8.0739300000
S	  13.6714000000	  46.2733000000	  11.1465000000
S	  13.7145000000	  46.4784000000	  13.2650000000
S	   6.5282100000	  37.6880000000	  13.7519000000
S	   5.5315200000	  38.5416000000	  15.3679000000
S	   6.7704500000	  38.4375000000	  17.1252000000
S	   9.7370200000	  42.5112000000	  17.1447000000
S	  11.6113000000	  42.4596000000	  16.1153000000
S	  13.1029000000	  43.3391000000	  17.2990000000
S	   9.1924000000	  40.6571000000	  18.0281000000
S	   7.1040700000	  40.3115000000	  17.9151000000
