54

Li	   9.5515200000	  45.5085000000	  38.7952000000
O	   7.4098800000	  46.4518000000	  38.3322000000
O	   8.1541000000	  49.4028000000	  38.9591000000
O	   8.4204400000	  44.1703000000	  39.2763000000
O	   9.4962900000	  49.8745000000	  41.1936000000
O	  11.0748000000	  44.0843000000	  38.8617000000
C	   6.8221400000	  47.6524000000	  37.9227000000
C	   6.4686800000	  45.5255000000	  38.8208000000
C	   7.9387900000	  48.7277000000	  37.6892000000
C	   7.1778100000	  44.1327000000	  38.6214000000
C	   9.2335600000	  50.3859000000	  38.8905000000
C	   9.0118900000	  42.8801000000	  39.1101000000
C	   9.3359200000	  50.9640000000	  40.2795000000
C	  10.4972000000	  42.9204000000	  39.4237000000
C	   9.8914900000	  50.2198000000	  42.5155000000
C	  12.4240000000	  44.3188000000	  39.1355000000
H	   6.2305100000	  47.5623000000	  36.9805000000
H	   6.1225400000	  48.0038000000	  38.6524000000
H	   6.2188600000	  45.7642000000	  39.9361000000
H	   5.4603000000	  45.5276000000	  38.3351000000
H	   8.8293700000	  48.2380000000	  37.4057000000
H	   7.6388100000	  49.4444000000	  36.9789000000
H	   6.5499500000	  43.3131000000	  38.9229000000
H	   7.2978500000	  44.0175000000	  37.5757000000
H	  10.0533000000	  49.8543000000	  38.3795000000
H	   8.8839600000	  51.1658000000	  38.1866000000
H	   8.5335000000	  42.1675000000	  39.7622000000
H	   8.8639400000	  42.4473000000	  38.1351000000
H	  10.1328000000	  51.7128000000	  40.4102000000
H	   8.4132600000	  51.4729000000	  40.5298000000
H	  10.6196000000	  42.8745000000	  40.4914000000
H	  10.9541000000	  41.9032000000	  39.0474000000
H	  10.6385000000	  51.0647000000	  42.5837000000
H	   8.9352300000	  50.3433000000	  43.0499000000
H	  10.3561000000	  49.3330000000	  42.9821000000
H	  12.9982000000	  44.9880000000	  38.4941000000
H	  12.5365000000	  44.8590000000	  40.0313000000
H	  12.9478000000	  43.3336000000	  39.4553000000
S	  15.6446000000	  51.0062000000	  31.9807000000
S	  14.1008000000	  52.2490000000	  32.6170000000
S	  13.5110000000	  52.0192000000	  34.6095000000
S	  10.7629000000	  48.5549000000	  34.4726000000
S	   9.3221100000	  47.0911000000	  35.1167000000
S	  10.2385000000	  45.8185000000	  36.5231000000
S	  10.7526000000	  50.1568000000	  35.8256000000
S	  11.4152000000	  51.8801000000	  34.7459000000
S	   9.8061100000	  46.8109000000	  40.5730000000
S	  10.5001000000	  45.9755000000	  42.4129000000
S	   9.0198700000	  44.6101000000	  43.1293000000
S	   7.5929900000	  41.8055000000	  46.9144000000
S	   8.4037300000	  40.2739000000	  48.1600000000
S	   7.5443200000	  38.3949000000	  47.7895000000
S	   8.8726400000	  43.3497000000	  46.4396000000
S	   9.7129200000	  43.0963000000	  44.5173000000
