46

Li	   3.4338200000	  16.2352000000	  19.4767000000
O	   3.8319700000	  13.0372000000	  20.4253000000
O	   6.7750100000	  13.0396000000	  20.8977000000
O	   2.1775900000	  15.3307000000	  20.6105000000
O	   9.1367200000	  14.3218000000	  20.7172000000
O	   2.6088800000	  18.1516000000	  19.7803000000
C	   4.7937700000	  12.2160000000	  19.7413000000
C	   2.4840100000	  12.9201000000	  19.9204000000
C	   5.8867700000	  11.9376000000	  20.6669000000
C	   1.6433600000	  14.0267000000	  20.5166000000
C	   7.8200700000	  12.6195000000	  21.7853000000
C	   1.2105800000	  16.3728000000	  20.6683000000
C	   8.7352500000	  13.7789000000	  22.0113000000
C	   1.8663000000	  17.7109000000	  20.9174000000
C	   9.9539300000	  15.4792000000	  20.7405000000
C	   3.1036800000	  19.4375000000	  20.1147000000
H	   4.4367500000	  11.2358000000	  19.3809000000
H	   5.1072500000	  12.7590000000	  18.8763000000
H	   2.5712600000	  12.9352000000	  18.8534000000
H	   2.0588600000	  11.9399000000	  20.1774000000
H	   5.5757600000	  11.4807000000	  21.5368000000
H	   6.4137700000	  11.1121000000	  20.1263000000
H	   0.6601581850	  14.0180000000	  20.0530000000
H	   1.4995900000	  13.7978000000	  21.5554000000
H	   7.3823000000	  12.4973000000	  22.7546000000
H	   8.4059600000	  11.7314000000	  21.5033000000
H	   0.7359581850	  16.3338000000	  19.6657000000
H	   0.4751581850	  16.0616000000	  21.3843000000
H	   8.2527200000	  14.4599000000	  22.7322000000
H	   9.5748300000	  13.4860000000	  22.5677000000
H	   1.0205100000	  18.3753000000	  20.9376000000
H	   2.4278600000	  17.7778000000	  21.8615000000
H	  10.1686000000	  15.8215000000	  19.6667000000
H	   9.4198800000	  16.2855000000	  21.1866000000
H	  10.8469000000	  15.3414000000	  21.3073000000
H	   2.3308800000	  20.1608000000	  20.1889000000
H	   3.6159700000	  19.3226000000	  21.0589000000
H	   3.7044500000	  19.7728000000	  19.2926000000
S	   2.7280900000	  16.1240000000	  17.4631000000
S	   3.9160600000	  16.6929000000	  15.8458000000
S	   4.3514900000	  18.7192000000	  15.9370000000
S	   7.8301900000	  18.4986000000	  19.4782000000
S	   6.5507900000	  17.6320000000	  20.9113000000
S	   5.5670200000	  15.8078000000	  20.4010000000
S	   6.7577400000	  19.9126000000	  18.2803000000
S	   6.4013900000	  19.0664000000	  16.2803000000
