75

Li	  56.3275000000	  32.8006000000	  20.1947000000
O	  52.7671000000	  33.3447000000	  18.7327000000
O	  50.1321000000	  33.9348000000	  18.0691000000
O	  55.3703000000	  34.3577000000	  19.8344000000
O	  49.3020000000	  36.5896000000	  16.9226000000
O	  57.5906000000	  33.9214000000	  21.3447000000
C	  51.7802000000	  32.3688000000	  18.7197000000
C	  54.0821000000	  33.0426000000	  18.2963000000
C	  50.4922000000	  33.0650000000	  19.1194000000
C	  54.9613000000	  34.2660000000	  18.4741000000
C	  48.9829000000	  34.6157000000	  18.4773000000
C	  56.1746000000	  35.4631000000	  20.0965000000
C	  48.4208000000	  35.6312000000	  17.4592000000
C	  56.7842000000	  35.0935000000	  21.4655000000
C	  49.6810000000	  37.5909000000	  17.7756000000
C	  58.3911000000	  33.5761000000	  22.4554000000
H	  51.6879000000	  32.0995000000	  17.6958000000
H	  52.0469000000	  31.5031000000	  19.2789000000
H	  54.4764000000	  32.1864000000	  18.8790000000
H	  53.9181000000	  32.8152000000	  17.2857000000
H	  49.8085000000	  32.2101000000	  19.1083000000
H	  50.5371000000	  33.5759000000	  20.0818000000
H	  55.7576000000	  34.1758000000	  17.8299000000
H	  54.5037000000	  35.1774000000	  18.1330000000
H	  48.2706000000	  33.8640000000	  18.6875000000
H	  49.2338000000	  35.2341000000	  19.3626000000
H	  56.8206000000	  35.5922000000	  19.2266000000
H	  55.5491000000	  36.4226000000	  20.1466000000
H	  48.0985000000	  35.0183000000	  16.6031000000
H	  47.5630000000	  36.0817000000	  17.8937000000
H	  57.4697000000	  35.9129000000	  21.7958000000
H	  55.9177000000	  34.8674000000	  22.1696000000
H	  50.1772000000	  38.4243000000	  17.2110000000
H	  48.9037000000	  38.1200000000	  18.3568000000
H	  50.4127000000	  37.2531000000	  18.5063000000
H	  58.8330000000	  32.6218000000	  22.2668000000
H	  59.1181000000	  34.2833000000	  22.6834000000
H	  57.8596000000	  33.4541000000	  23.3364000000
O	  57.8265000000	  32.4801000000	  18.5153000000
O	  56.6475000000	  30.9738000000	  20.3634000000
O	  56.3345000000	  32.7499000000	  15.8925000000
O	  54.9532000000	  32.2766000000	  22.1667000000
O	  54.2358000000	  33.5227000000	  13.1842000000
C	  57.9856000000	  31.0540000000	  18.4631000000
C	  58.3025000000	  33.0350000000	  17.3572000000
C	  57.8749000000	  30.4957000000	  19.8725000000
C	  57.7081000000	  32.5541000000	  15.9593000000
C	  56.4205000000	  30.4288000000	  21.6505000000
C	  55.7795000000	  32.2440000000	  14.6695000000
C	  55.1278000000	  30.8482000000	  22.2619000000
C	  54.3343000000	  32.6630000000	  14.2714000000
C	  54.1520000000	  32.7722000000	  23.2456000000
C	  54.4062000000	  32.9264000000	  11.9246000000
H	  57.1451000000	  30.5454000000	  17.9266000000
H	  58.8611000000	  30.5896000000	  17.9916000000
H	  58.1223000000	  34.0513000000	  17.3080000000
H	  59.3774218150	  32.9950000000	  17.3394000000
H	  57.8277000000	  29.4219000000	  19.7943000000
H	  58.6467000000	  30.7435000000	  20.5711000000
H	  58.2912000000	  32.9706000000	  15.1032000000
H	  57.9278000000	  31.4651000000	  15.8402000000
H	  56.6310000000	  29.3563000000	  21.7354000000
H	  57.1622000000	  30.8552000000	  22.3421000000
H	  56.5668000000	  32.5493000000	  13.8932000000
H	  55.8498000000	  31.1651000000	  14.7109000000
H	  54.3201000000	  30.3869000000	  21.6815000000
H	  55.1434000000	  30.5195000000	  23.3099000000
H	  53.8262000000	  31.7220000000	  13.9258000000
H	  53.6043000000	  33.1698000000	  14.9968000000
H	  53.6324000000	  33.6091000000	  22.6813000000
H	  53.4375000000	  32.0329000000	  23.6037000000
H	  54.8374000000	  33.1051000000	  24.1085000000
H	  55.4187000000	  32.9303000000	  11.6755000000
H	  53.9950000000	  31.8997000000	  11.8315000000
H	  53.8639000000	  33.4515000000	  11.1580000000
