53

Li	  24.9050000000	  19.3402000000	  39.7880000000
O	  24.8057000000	  18.1544000000	  41.4022000000
O	  23.7957000000	  17.7596000000	  39.0874000000
O	  22.6352000000	  18.3339000000	  43.6593000000
O	  24.3867000000	  20.2217000000	  37.7954000000
O	  20.7465000000	  17.8226000000	  45.7505000000
C	  24.2153000000	  16.8049000000	  41.2234000000
C	  24.9847000000	  18.5644000000	  42.7281000000
C	  24.2591000000	  16.5623000000	  39.7473000000
C	  23.6712000000	  19.2173000000	  43.2346000000
C	  24.1077000000	  17.7442000000	  37.7282000000
C	  21.4337000000	  19.0305000000	  43.8867000000
C	  23.6318000000	  19.1514000000	  37.2059000000
C	  20.3081000000	  18.1296000000	  44.4259000000
C	  24.0882000000	  21.5147000000	  37.2599000000
C	  20.0565000000	  16.7312000000	  46.2086000000
H	  24.7952000000	  16.0494000000	  41.8313000000
H	  23.1189000000	  16.9653000000	  41.5042000000
H	  25.3450000000	  17.8161000000	  43.4535000000
H	  25.8551000000	  19.2282000000	  42.7299000000
H	  25.2475000000	  16.2702000000	  39.4964000000
H	  23.6037000000	  15.6923000000	  39.5273000000
H	  23.9448000000	  19.8565000000	  44.0977000000
H	  23.3274000000	  19.9032000000	  42.5032000000
H	  25.1911000000	  17.6283000000	  37.5176000000
H	  23.4730000000	  16.9612000000	  37.3151000000
H	  21.5978000000	  19.8942000000	  44.4434000000
H	  21.0923000000	  19.4680000000	  42.9836000000
H	  23.6993000000	  19.0687000000	  36.1543000000
H	  22.5647000000	  19.4075000000	  37.3983000000
H	  19.4524000000	  18.7562000000	  44.4520000000
H	  20.0772000000	  17.1943000000	  43.7994000000
H	  24.5180000000	  22.2266000000	  37.9001000000
H	  24.4964000000	  21.6039000000	  36.2550000000
H	  22.9780000000	  21.6404000000	  37.2902000000
H	  20.4524000000	  16.5641000000	  47.1909000000
H	  18.9926000000	  16.9827000000	  46.4017000000
H	  20.0965000000	  15.8605000000	  45.6107000000
N	  27.5610000000	  21.1176000000	  38.9250000000
S	  27.7114000000	  19.6428000000	  38.4201000000
O	  26.8220000000	  18.7542000000	  39.1833000000
O	  27.6781000000	  19.4239000000	  36.9619000000
C	  29.4418000000	  19.3156000000	  39.0070000000
F	  30.3388000000	  20.1104000000	  38.5318000000
F	  29.8889000000	  18.1003000000	  38.6527000000
F	  29.5790000000	  19.3582000000	  40.3107000000
S	  26.5358000000	  21.8952000000	  39.8776000000
O	  25.4433000000	  21.0955000000	  40.4812000000
O	  26.2873000000	  23.2567000000	  39.4652000000
C	  27.5870000000	  22.2007000000	  41.2487000000
F	  27.7917000000	  21.0389000000	  41.8774000000
F	  28.7668000000	  22.7749000000	  40.9692000000
F	  26.9802000000	  22.9792000000	  42.0880000000
