28

Li	  12.2497000000	  40.1812000000	  48.6008000000
O	   7.8537300000	  40.2428000000	  47.6351000000
O	  10.1349000000	  39.7857000000	  47.8904000000
C	   8.1048500000	  38.9138000000	  47.1990000000
C	   9.6184100000	  38.8998000000	  46.8358000000
C	   9.0807300000	  40.6459000000	  48.1682000000
H	   7.8995600000	  38.2669000000	  48.0376000000
H	   7.4510100000	  38.5069000000	  46.3915000000
H	  10.0048000000	  37.9370000000	  46.8954000000
H	   9.8283800000	  39.3936000000	  45.8593000000
H	   9.2770300000	  41.6922000000	  47.7725000000
H	   9.0296000000	  40.8523000000	  49.2240000000
S	  13.5853000000	  28.5992000000	  44.6180000000
S	  12.6960000000	  30.4728000000	  45.0370000000
S	  14.1401000000	  32.0091000000	  44.7767000000
S	  12.2567000000	  36.1445000000	  47.0686000000
S	  12.7616000000	  38.2161000000	  47.3766000000
S	  13.8081000000	  38.6685000000	  49.1608000000
S	  13.3394000000	  35.1452000000	  45.5095000000
S	  14.2092000000	  33.4137000000	  46.2548000000
S	  10.6656000000	  48.5937000000	  42.3917000000
S	   9.9378900000	  47.2582000000	  43.9169000000
S	   9.7715500000	  45.2692000000	  43.1544000000
S	  12.3960000000	  43.9253000000	  47.1398000000
S	  13.5321000000	  42.6068000000	  48.4529000000
S	  12.1002000000	  41.8248000000	  49.7439000000
S	  11.3608000000	  43.0777000000	  45.4957000000
S	  11.4647000000	  44.2292000000	  43.7850000000
