75

Li	  30.8743000000	  50.4074000000	  28.4832000000
O	  24.4120000000	  48.5707000000	  28.4708000000
O	  27.5471000000	  46.7417000000	  29.1242000000
O	  21.6772000000	  49.0752000000	  28.1510000000
O	  30.8119000000	  48.4403000000	  28.4290000000
O	  20.3011000000	  48.7612000000	  25.8050000000
C	  25.2871000000	  47.4581000000	  28.7937000000
C	  23.6206000000	  48.8854000000	  29.5925000000
C	  26.6363000000	  47.8876000000	  29.1732000000
C	  22.5006000000	  49.7705000000	  29.0410000000
C	  28.8785000000	  47.1328000000	  29.4880000000
C	  20.5639000000	  49.9381000000	  27.8331000000
C	  29.6132000000	  47.7198000000	  28.2708000000
C	  19.5574000000	  49.2401000000	  26.8837000000
C	  31.8920000000	  47.6197000000	  28.9060000000
C	  19.6684000000	  47.8763000000	  24.9288000000
H	  24.8387000000	  46.6927000000	  29.4154000000
H	  25.3481000000	  46.9526000000	  27.8592000000
H	  23.2126000000	  48.0684000000	  30.1747000000
H	  24.2172000000	  49.3543000000	  30.3100000000
H	  26.9595000000	  48.7781000000	  28.5886000000
H	  26.6058000000	  48.3055000000	  30.1822000000
H	  21.8636000000	  49.9454000000	  29.9145000000
H	  22.9938000000	  50.7065000000	  28.7085000000
H	  28.8282000000	  47.8277000000	  30.3211000000
H	  29.3732000000	  46.2591000000	  29.7516000000
H	  19.9435000000	  50.1471000000	  28.6739000000
H	  20.9093000000	  50.9030000000	  27.4250000000
H	  29.6995000000	  47.0014000000	  27.4828000000
H	  29.0459000000	  48.5296000000	  27.7409000000
H	  19.1782000000	  48.4070000000	  27.4830000000
H	  18.7014000000	  49.8796000000	  26.5268000000
H	  31.8715000000	  47.2659000000	  29.9101000000
H	  32.0386000000	  46.8005000000	  28.2596000000
H	  32.7086000000	  48.3124000000	  28.9692000000
H	  20.3106000000	  47.5421000000	  24.1557000000
H	  19.3511000000	  46.9437000000	  25.4212000000
H	  18.8280000000	  48.3370000000	  24.4300000000
O	  29.0879000000	  51.0344000000	  27.9029000000
O	  31.2981000000	  50.7571000000	  26.6529000000
O	  30.1145000000	  50.5047000000	  30.2392000000
O	  32.7459000000	  51.3428000000	  28.8282000000
O	  31.9794000000	  51.7114000000	  32.4023000000
C	  29.0007000000	  51.6827000000	  26.6134000000
C	  28.6443000000	  51.8305000000	  28.9344000000
C	  30.0963000000	  50.8485000000	  25.8476000000
C	  28.7390000000	  50.8989000000	  30.1850000000
C	  32.1022000000	  51.9353000000	  26.5950000000
C	  30.4642000000	  50.0535000000	  31.5857000000
C	  33.2930000000	  51.6419000000	  27.5350000000
C	  30.6261000000	  51.1634000000	  32.5760000000
C	  33.7122000000	  51.1595000000	  29.7811000000
C	  31.8030000000	  53.1394000000	  32.1291000000
H	  28.0587000000	  51.5405000000	  26.1463000000
H	  29.1363000000	  52.7171000000	  26.5100000000
H	  29.3503000000	  52.5921000000	  29.0321000000
H	  27.5867000000	  52.2505000000	  28.8038000000
H	  29.6006000000	  49.9214000000	  25.5064000000
H	  30.2294000000	  51.3559000000	  24.8991000000
H	  28.4564000000	  51.5391000000	  30.9379000000
H	  28.1119000000	  50.0514000000	  30.2297000000
H	  32.5151000000	  51.9675000000	  25.6233000000
H	  31.4106000000	  52.7476000000	  26.8913000000
H	  29.6673000000	  49.4014000000	  31.9319000000
H	  31.2392000000	  49.3554000000	  31.3593000000
H	  33.7794000000	  50.7070000000	  27.1508000000
H	  34.0520000000	  52.3627000000	  27.5728000000
H	  29.8720000000	  51.9041000000	  32.5709000000
H	  30.7088000000	  50.8018000000	  33.6227000000
H	  34.0235000000	  52.0750000000	  30.2002000000
H	  33.3037000000	  50.6724000000	  30.6275000000
H	  34.6249000000	  50.5925000000	  29.4094000000
H	  32.8836000000	  53.4159000000	  32.2252000000
H	  31.3442000000	  53.3070000000	  31.1495000000
H	  31.2884000000	  53.6487000000	  32.9680000000
