83

Li	  46.7630000000	  23.0777000000	  54.5934000000
O	  48.8155000000	  30.4083000000	  55.8342000000
O	  50.5056000000	  32.6490000000	  55.5408000000
O	  48.2610000000	  27.4764000000	  55.6721000000
O	  52.7105000000	  32.3739000000	  56.3631000000
O	  47.0467000000	  24.7664000000	  55.2305000000
C	  48.4377000000	  31.7695000000	  55.7326000000
C	  48.2357000000	  29.5869000000	  56.8064000000
C	  49.3148000000	  32.6648000000	  54.8212000000
C	  48.8644000000	  28.1827000000	  56.7395000000
C	  51.3493000000	  33.7061000000	  55.1149000000
C	  48.9604000000	  26.2086000000	  55.4605000000
C	  52.5650000000	  33.7386000000	  56.0608000000
C	  48.0785000000	  25.3947000000	  54.5051000000
C	  53.8239000000	  32.0691000000	  57.1549000000
C	  46.1408000000	  25.6127000000	  55.9370000000
H	  47.4552000000	  31.6834000000	  55.3057000000
H	  48.3281000000	  32.1201000000	  56.7395000000
H	  48.3328000000	  30.0162000000	  57.7935000000
H	  47.2439000000	  29.5624000000	  56.6389000000
H	  49.3800000000	  32.1935000000	  53.8651000000
H	  48.8054000000	  33.6400000000	  54.7536000000
H	  49.9381000000	  28.1344000000	  56.5702000000
H	  48.7001000000	  27.7304000000	  57.7244000000
H	  51.8549000000	  33.4720000000	  54.1798000000
H	  50.9632000000	  34.6885000000	  54.9995000000
H	  49.9580000000	  26.4323000000	  55.0943000000
H	  49.1569000000	  25.6728000000	  56.4245000000
H	  53.4446000000	  34.3334000000	  55.7442000000
H	  52.2069000000	  34.2660000000	  56.9510000000
H	  47.5699000000	  25.9969000000	  53.7332000000
H	  48.7148000000	  24.7142000000	  53.9336000000
H	  54.6702000000	  31.7473000000	  56.6101000000
H	  54.1295000000	  32.9737000000	  57.6314000000
H	  53.5433000000	  31.3455000000	  57.9090000000
H	  45.5897000000	  26.2747000000	  55.2501000000
H	  45.3056000000	  24.9887000000	  56.3122000000
H	  46.4674000000	  26.2684000000	  56.7568000000
O	  47.1761000000	  23.1345000000	  52.5749000000
O	  44.1081000000	  24.1911000000	  52.4942000000
O	  48.1276000000	  21.5304000000	  54.5964000000
O	  41.0635000000	  24.1650000000	  52.1864000000
O	  47.1648000000	  22.3371000000	  57.0496000000
C	  46.4049000000	  23.7719000000	  51.5804000000
C	  47.9536000000	  21.9916000000	  52.1128000000
C	  45.3796000000	  24.8270000000	  52.1661000000
C	  48.8430000000	  21.6596000000	  53.3628000000
C	  43.1937000000	  24.9314000000	  53.2628000000
C	  48.9619000000	  21.7207000000	  55.6634000000
C	  41.8637000000	  24.1001000000	  53.3846000000
C	  48.0909000000	  21.3532000000	  56.8405000000
C	  39.6524000000	  24.0366000000	  52.4223000000
C	  46.2891000000	  22.1953000000	  58.0857000000
H	  47.1593000000	  24.2290000000	  50.9831000000
H	  45.8499000000	  22.9932000000	  51.0009000000
H	  47.2987000000	  21.1873000000	  51.8779000000
H	  48.5834000000	  22.2391000000	  51.2518000000
H	  45.6675000000	  25.5070000000	  52.9912000000
H	  45.2813000000	  25.5971000000	  51.3527000000
H	  49.4748000000	  20.7573000000	  53.1611000000
H	  49.5853000000	  22.4824000000	  53.3554000000
H	  43.7414000000	  25.1583000000	  54.2230000000
H	  43.0123000000	  25.9452000000	  52.8488000000
H	  49.7680000000	  21.0028000000	  55.3952000000
H	  49.3134000000	  22.6811000000	  55.8530000000
H	  41.9916000000	  23.0869000000	  53.7186000000
H	  41.3345000000	  24.6930000000	  54.1532000000
H	  47.5293000000	  20.4285000000	  56.6372000000
H	  48.7769000000	  21.2404000000	  57.7452000000
H	  39.5169000000	  23.3553000000	  53.2916000000
H	  39.2153000000	  24.9659000000	  52.8104000000
H	  39.1740000000	  23.7815000000	  51.5140000000
H	  45.7046000000	  23.0678000000	  58.1785000000
H	  45.4162000000	  21.5512000000	  57.7904000000
H	  46.7717000000	  21.7915000000	  58.9594000000
S	  43.8200000000	  11.8702000000	  57.6570000000
S	  45.3391000000	  12.7089000000	  56.4612000000
S	  45.3223000000	  14.7997000000	  56.4445000000
S	  46.0959000000	  18.9036000000	  54.0030000000
S	  44.4546000000	  20.0160000000	  54.8097000000
S	  44.8988000000	  22.0551000000	  54.9289000000
S	  47.0445000000	  17.6400000000	  55.3528000000
S	  46.6109000000	  15.6250000000	  55.0555000000
