39

Li	  16.7509000000	  32.0944000000	  47.0235000000
O	  15.9614000000	  32.8894000000	  50.7905000000
O	  16.9085000000	  32.9509000000	  48.8029000000
C	  15.7249000000	  34.1792000000	  50.3674000000
C	  16.8540000000	  34.2363000000	  49.4030000000
C	  16.2238000000	  32.1447000000	  49.6682000000
H	  14.7427000000	  34.1999000000	  49.8835000000
H	  15.7265000000	  34.9224000000	  51.1749000000
H	  16.6770000000	  34.9876000000	  48.6150000000
H	  17.7562000000	  34.4827000000	  49.9612000000
H	  16.8764000000	  31.3205000000	  49.9337000000
H	  15.2934000000	  31.7046000000	  49.2974000000
O	  18.1728000000	  35.1661000000	  44.8407000000
O	  17.9782000000	  33.1800000000	  46.0115000000
C	  18.4375000000	  34.1851000000	  43.8294000000
C	  18.5432000000	  32.9118000000	  44.7037000000
C	  17.5327000000	  34.5251000000	  45.9311000000
H	  17.5282000000	  34.0995000000	  43.2227000000
H	  19.2358000000	  34.5728000000	  43.2300000000
H	  18.0295000000	  32.0544000000	  44.2028000000
H	  19.6073000000	  32.6741000000	  44.9224000000
H	  17.8454000000	  35.1001000000	  46.7644000000
H	  16.4589000000	  34.5087000000	  45.6532000000
S	  14.7783000000	  32.0721000000	  46.5015000000
S	  14.0731000000	  34.0590000000	  46.9909000000
S	  12.4712000000	  34.1643000000	  48.3298000000
S	   9.9135500000	  38.5964000000	  48.6537000000
S	  10.2534000000	  40.1626000000	  50.0823000000
S	  10.6131000000	  42.0058000000	  49.2289000000
S	  10.2649000000	  36.6860000000	  49.5967000000
S	  12.3052000000	  36.0897000000	  49.1698000000
S	  24.5562000000	  27.0745000000	  41.8199000000
S	  24.2787000000	  29.0135000000	  42.5099000000
S	  22.6543000000	  29.8827000000	  41.6261000000
S	  18.6243000000	  28.4416000000	  44.4538000000
S	  17.2277000000	  29.4497000000	  45.6663000000
S	  18.0192000000	  30.4550000000	  47.4239000000
S	  19.3143000000	  29.6075000000	  42.8215000000
S	  21.1762000000	  30.5094000000	  43.0717000000
