46

Li	  49.1182000000	  39.9912000000	   5.4995200000
O	  49.0465000000	  41.8760000000	   0.9955580000
O	  48.9782000000	  40.4455000000	   3.7412200000
O	  48.9754000000	  44.9355000000	   0.8802560000
O	  49.2095000000	  38.1651000000	   5.0217300000
O	  48.9679000000	  46.5286000000	   3.1098400000
C	  48.3575000000	  42.2676000000	   2.1983400000
C	  48.7198000000	  42.7536000000	  -0.0845094424
C	  49.2869000000	  41.8101000000	   3.3231000000
C	  49.4851000000	  44.1143000000	  -0.1213094424
C	  49.6895000000	  39.3690000000	   3.0386200000
C	  49.3500000000	  46.3027000000	   0.7944905576
C	  49.1472000000	  38.0613000000	   3.6273600000
C	  48.4890000000	  46.9813000000	   1.8480000000
C	  49.2125000000	  36.9515000000	   5.7070600000
C	  48.0418000000	  46.6353000000	   4.1432100000
H	  48.0606000000	  43.3363000000	   2.2963700000
H	  47.4626000000	  41.6674000000	   2.1411000000
H	  49.1094000000	  42.3718000000	  -1.0209094424
H	  47.6940000000	  42.8988000000	  -0.3505094424
H	  50.3194000000	  42.0646000000	   3.0609700000
H	  48.9710000000	  42.4288000000	   4.1847500000
H	  50.5289000000	  43.8871000000	  -0.0484094424
H	  49.3485000000	  44.5328000000	  -1.1715094424
H	  49.4850000000	  39.3947000000	   1.9866300000
H	  50.7252000000	  39.3793000000	   3.0725300000
H	  50.3890000000	  46.4888000000	   1.0107700000
H	  49.0750000000	  46.7185000000	  -0.1766094424
H	  48.0938000000	  37.8590000000	   3.3044400000
H	  49.7433000000	  37.1598000000	   3.2109400000
H	  48.5761000000	  48.0597000000	   1.7800900000
H	  47.4371000000	  46.6411000000	   1.6668500000
H	  48.4832000000	  36.1824000000	   5.4159500000
H	  50.1484000000	  36.4325000000	   5.5416000000
H	  49.1281000000	  36.9576000000	   6.7846400000
H	  47.2420000000	  45.9852000000	   4.1075400000
H	  48.6286000000	  46.5483000000	   5.0773300000
H	  47.6983000000	  47.7227000000	   4.1034400000
S	  40.8456000000	  33.4824000000	  10.4451000000
S	  42.8325000000	  34.1624000000	  10.9510000000
S	  43.0405000000	  36.2013000000	  11.2655000000
S	  45.3087000000	  39.8742000000	   8.6978900000
S	  47.3314000000	  40.3952000000	   8.3770600000
S	  47.5985000000	  41.3100000000	   6.4819100000
S	  45.1127000000	  37.7757000000	   8.7019400000
S	  44.9710000000	  36.8732000000	  10.5853000000
