64

Li	   7.4404300000	  52.3418000000	   7.6768200000
O	   3.3459500000	  51.6729000000	   6.9791900000
O	   5.5782400000	  51.7243000000	   7.3073700000
C	   3.9162000000	  52.4714000000	   5.8949700000
C	   5.3430200000	  51.9235000000	   5.9145000000
C	   4.4148000000	  51.4776000000	   7.8680600000
H	   3.3698300000	  52.2871000000	   4.8983600000
H	   3.9011900000	  53.4998000000	   6.2369700000
H	   5.3788700000	  50.9402000000	   5.4116100000
H	   6.0727400000	  52.6603000000	   5.5057400000
H	   4.2616300000	  52.0297000000	   8.8045300000
H	   4.3387400000	  50.4092000000	   8.1105500000
O	   8.6279400000	  50.8910000000	   7.1018800000
O	   7.0001800000	  50.4519000000	   9.0715600000
O	   8.2751200000	  53.3218000000	   6.2309700000
O	   6.9179000000	  48.2439000000	  11.3496000000
O	   6.8045900000	  54.3365000000	   8.2072600000
C	   8.1562300000	  49.5935000000	   7.2635600000
C	   9.0092600000	  51.1595000000	   5.7677500000
C	   7.7794900000	  49.3990000000	   8.7460400000
C	   9.4317600000	  52.5855000000	   5.7470000000
C	   6.6279000000	  50.6020000000	  10.4697000000
C	   8.2744500000	  54.7666000000	   6.2996900000
C	   6.0661300000	  49.3482000000	  11.2343000000
C	   6.9204800000	  55.2078000000	   6.9954000000
C	   8.2080900000	  48.3237000000	  11.9972000000
C	   5.8385800000	  54.6786000000	   9.1718700000
H	   7.3637100000	  49.3629000000	   6.5382700000
H	   8.9362900000	  48.8744000000	   7.0425600000
H	   9.9538800000	  50.5695000000	   5.5120300000
H	   8.1003000000	  51.0240000000	   5.1358000000
H	   7.3652200000	  48.3853000000	   8.8851200000
H	   8.7302000000	  49.3676000000	   9.3074800000
H	  10.2988000000	  52.7446000000	   6.3969700000
H	   9.7276900000	  53.0029000000	   4.8059000000
H	   7.5009100000	  50.9569000000	  10.9560000000
H	   5.8845600000	  51.3879000000	  10.6687000000
H	   8.9811600000	  55.1034000000	   7.0149900000
H	   8.6093500000	  55.1405000000	   5.3295900000
H	   5.7926800000	  49.7409000000	  12.2023000000
H	   5.1823400000	  49.0398000000	  10.7759000000
H	   6.8301100000	  56.3146000000	   7.0974500000
H	   6.1400700000	  54.9475000000	   6.2928100000
H	   8.0393300000	  48.4821000000	  13.0614000000
H	   8.7826300000	  47.4130000000	  11.9098000000
H	   8.7751400000	  49.1731000000	  11.6198000000
H	   4.8933900000	  54.9900000000	   8.8732200000
H	   5.7884300000	  53.7892000000	   9.8262300000
H	   6.1562500000	  55.5097000000	   9.7036700000
N	  11.0044000000	  53.1737000000	  10.6795000000
S	  10.0921000000	  53.7333000000	   9.5516800000
O	  10.9287000000	  54.0386000000	   8.4363800000
O	   8.8882400000	  52.9761000000	   9.2390500000
C	   9.5489300000	  55.2481000000	  10.2158000000
F	   9.0098500000	  55.9643000000	   9.2433500000
F	  10.4347000000	  56.0597000000	  10.7213000000
F	   8.5480500000	  55.0928000000	  11.1141000000
S	  11.5664000000	  51.7075000000	  10.8351000000
O	  10.9655000000	  50.7847000000	   9.9161500000
O	  11.6627000000	  51.3555000000	  12.2414000000
C	  13.2798000000	  51.8217000000	  10.1442000000
F	  13.2181000000	  52.1764000000	   8.8450800000
F	  14.1217000000	  52.6456000000	  10.6793000000
F	  13.9310000000	  50.6617000000	  10.1577000000
