28

Li	   6.8983500000	  38.1107000000	  52.0882000000
O	   5.7911800000	  35.7799000000	  49.4686000000
O	   6.5858800000	  36.1979000000	  51.5303000000
C	   4.8383800000	  35.3642000000	  50.4460000000
C	   5.6007900000	  35.2907000000	  51.8222000000
C	   6.8947900000	  35.9265000000	  50.2207000000
H	   4.0930300000	  36.1838000000	  50.5350000000
H	   4.2303000000	  34.4759000000	  50.2969000000
H	   5.0527400000	  35.6305000000	  52.6813000000
H	   6.1091500000	  34.3837000000	  52.0430000000
H	   7.4665700000	  34.9580000000	  50.1475000000
H	   7.4927200000	  36.7413000000	  49.7696000000
S	  14.2859000000	  32.7279000000	  45.3911000000
S	  13.5637000000	  34.0092000000	  46.9114000000
S	  14.4365000000	  33.6629000000	  48.8101000000
S	  11.8393000000	  36.1289000000	  52.1119000000
S	   9.8699900000	  35.8802000000	  52.9345000000
S	   8.8381300000	  37.7360000000	  52.7933000000
S	  12.8710000000	  34.3250000000	  52.0729000000
S	  12.7617000000	  33.4135000000	  50.2222000000
S	   9.1545300000	  44.7078000000	  43.4515000000
S	   7.5234800000	  45.2270000000	  44.6097000000
S	   6.6845900000	  43.4338000000	  45.3287000000
S	   6.2064000000	  41.3264000000	  49.7476000000
S	   6.2932700000	  39.2676000000	  50.2088000000
S	   4.9889100000	  38.8085000000	  51.8041000000
S	   5.1365100000	  41.9833000000	  48.0743000000
S	   5.7501300000	  43.7991000000	  47.3013000000
