28

Li	  40.1944000000	  20.6983000000	  46.5831000000
O	  41.7142000000	  19.6439000000	  46.3024000000
O	  43.4649000000	  18.4009000000	  45.5952000000
C	  42.1896000000	  18.9645000000	  47.4783000000
C	  43.5095000000	  18.3661000000	  46.9989000000
C	  42.0848000000	  18.8822000000	  45.2712000000
H	  42.2899000000	  19.5992000000	  48.3706000000
H	  41.4782000000	  18.1481000000	  47.7803000000
H	  44.3185000000	  18.9658000000	  47.4120000000
H	  43.4845000000	  17.2964000000	  47.2213000000
H	  41.3422000000	  18.0823000000	  45.1411000000
H	  42.1630000000	  19.5012000000	  44.3582000000
S	  40.6594000000	  22.6262000000	  47.4823000000
S	  39.4911000000	  21.3435000000	  48.7009000000
S	  39.2379000000	  22.0455000000	  50.5742000000
S	  36.5642000000	  19.3301000000	  53.8255000000
S	  37.6078000000	  18.6890000000	  55.4670000000
S	  38.9616000000	  17.2208000000	  54.8774000000
S	  37.1875000000	  21.3276000000	  53.3100000000
S	  37.2125000000	  21.7153000000	  51.1807000000
S	  40.7604000000	  10.3693000000	  40.5610000000
S	  40.3908000000	  12.3022000000	  39.9564000000
S	  41.4500000000	  13.7230000000	  41.1289000000
S	  38.2533000000	  17.7576000000	  42.8723000000
S	  38.6341000000	  18.3889000000	  44.9106000000
S	  38.6709000000	  20.4729000000	  45.0867000000
S	  40.0191000000	  16.8782000000	  41.9394000000
S	  40.1780000000	  14.8502000000	  42.3992000000
