49

Li	  26.6933000000	  56.8533000000	  17.5280000000
O	  28.2010000000	  53.9609000000	  16.3746000000
O	  28.0202000000	  56.1262000000	  16.3454000000
C	  29.4148000000	  54.3794000000	  17.0156000000
C	  29.2859000000	  55.8961000000	  16.8625000000
C	  27.7785000000	  54.9950000000	  15.5467000000
H	  29.4782000000	  53.8493000000	  18.0360000000
H	  30.2601000000	  53.9709000000	  16.3996000000
H	  29.3632000000	  56.4096000000	  17.8513000000
H	  30.0336000000	  56.2665000000	  16.1662000000
H	  28.3268000000	  54.8972000000	  14.5935000000
H	  26.6703000000	  54.9556000000	  15.4482000000
O	  24.3300000000	  56.0091000000	  14.7133000000
O	  25.1463000000	  57.3367000000	  16.3690000000
C	  24.6002000000	  57.2925000000	  14.1213000000
C	  25.5683000000	  58.0005000000	  15.1641000000
C	  24.3256000000	  56.2657000000	  16.0739000000
H	  25.1231000000	  57.0563000000	  13.2335000000
H	  23.7074000000	  57.9457000000	  13.9090000000
H	  26.6071000000	  57.6702000000	  15.0808000000
H	  25.5005000000	  59.0539000000	  15.2820000000
H	  23.3155000000	  56.4441000000	  16.3490000000
H	  24.5644000000	  55.3562000000	  16.7061000000
O	  27.8741000000	  60.6189888659	  18.5858000000
O	  27.4247000000	  58.5932000000	  17.5809000000
C	  28.9057000000	  60.4320388659	  17.7046000000
C	  28.1698000000	  59.4265488659	  16.6259000000
C	  27.0592000000	  59.4837788659	  18.5986000000
H	  29.3250000000	  61.3965788659	  17.3598000000
H	  29.7337000000	  59.8486388659	  18.1029000000
H	  27.4562000000	  60.0111988659	  15.9907000000
H	  28.9834000000	  58.9280000000	  16.0614000000
H	  27.0784000000	  58.9276000000	  19.5527000000
H	  26.0736000000	  59.8618088659	  18.6026000000
N	  27.1463000000	  55.8017000000	  21.5423000000
S	  27.1182000000	  55.0080000000	  20.2338000000
O	  26.8131000000	  55.7388000000	  19.0707000000
O	  28.1725000000	  53.9938000000	  20.0958000000
C	  25.6381000000	  53.9525000000	  20.4485000000
F	  24.5192000000	  54.6501000000	  20.3171000000
F	  25.5073000000	  53.5107000000	  21.7041000000
F	  25.6233000000	  52.9576000000	  19.5780000000
S	  27.9519000000	  57.0935000000	  21.8251000000
O	  27.1823000000	  57.9652000000	  22.7019000000
O	  28.7373000000	  57.7023000000	  20.7566000000
C	  29.2513000000	  56.2275000000	  22.8396000000
F	  29.8676000000	  55.2001000000	  22.2666000000
F	  30.2194000000	  57.1124000000	  23.1970000000
F	  28.7138000000	  55.7832000000	  23.9710000000
