46

Li	  30.2906000000	  54.8517000000	   9.9214300000
O	  28.2959000000	  54.7388000000	  13.0914000000
O	  29.5175000000	  55.7791000000	  11.4589000000
C	  29.3584000000	  55.4405000000	  13.8206000000
C	  29.9220000000	  56.3693000000	  12.6983000000
C	  28.3069000000	  55.1578000000	  11.7419000000
H	  29.0230000000	  55.9508000000	  14.7176000000
H	  30.0805000000	  54.6485000000	  14.1156000000
H	  29.6555000000	  57.4234000000	  12.9340000000
H	  31.0144000000	  56.3564000000	  12.8497000000
H	  28.1006000000	  54.3786000000	  11.0240000000
H	  27.4470000000	  55.8477000000	  11.6962000000
O	  34.0775000000	  56.3376000000	   9.5106100000
O	  32.2096000000	  55.2331000000	   9.9829800000
C	  34.3895000000	  54.9750000000	   9.5234600000
C	  33.2554000000	  54.3865000000	  10.3261000000
C	  32.7741000000	  56.4691000000	  10.0096000000
H	  34.4138000000	  54.6696000000	   8.5009300000
H	  35.4024000000	  54.7442000000	   9.9475500000
H	  33.0323000000	  53.3059000000	  10.2147000000
H	  33.4363000000	  54.3750000000	  11.3812000000
H	  32.6873000000	  56.7631000000	  11.0577000000
H	  32.0873000000	  57.0414000000	   9.2850600000
N	  31.9683000000	  50.4830000000	  10.1019000000
S	  31.8946000000	  49.6492000000	   8.7943400000
O	  33.1124000000	  48.9954000000	   8.4928600000
O	  30.6190000000	  49.0433000000	   8.4350600000
C	  31.9886000000	  51.0241000000	   7.5359000000
F	  33.0571000000	  51.7372000000	   7.7901800000
F	  30.9103000000	  51.8191000000	   7.5046500000
F	  32.2109000000	  50.5521000000	   6.3177900000
S	  30.7170000000	  51.0786000000	  10.8726000000
O	  29.7571000000	  50.0938000000	  11.2034000000
O	  30.2427000000	  52.4140000000	  10.6326000000
C	  31.4281000000	  51.3161000000	  12.5749000000
F	  30.6535000000	  52.1022000000	  13.2568000000
F	  31.7445000000	  50.2280000000	  13.3048000000
F	  32.6085000000	  51.9348000000	  12.4921000000
S	  24.0310000000	  64.2720188659	   9.6534500000
S	  25.0946000000	  63.1800288659	  11.1020000000
S	  25.7311000000	  61.3144088659	  10.3409000000
S	  28.8827000000	  57.9308000000	   8.4460800000
S	  28.2352000000	  55.8800000000	   8.5102700000
S	  29.7748000000	  54.5799000000	   7.8522800000
S	  28.5429000000	  58.9169000000	  10.2658000000
S	  27.7702000000	  60.9616788659	  10.1083000000
