42

Li	  18.0723000000	  31.2679000000	  17.1118000000
O	  17.6713000000	  31.4382000000	  15.0638000000
O	  16.8306000000	  32.0724000000	  13.0685000000
C	  18.7775000000	  31.6771000000	  14.1437000000
C	  18.1168000000	  32.6656000000	  13.1701000000
C	  16.4552000000	  31.7650000000	  14.3230000000
H	  19.6475000000	  32.0567000000	  14.5801000000
H	  18.9517000000	  30.7611000000	  13.6398000000
H	  18.1973000000	  33.7182000000	  13.5344000000
H	  18.5020000000	  32.5775000000	  12.2010000000
H	  15.6792000000	  30.9217000000	  14.4162000000
H	  16.0604000000	  32.6685000000	  14.8092000000
O	  18.3363000000	  29.3262000000	  16.7556000000
O	  17.9386000000	  27.1926000000	  16.1452000000
C	  19.4874000000	  28.5825000000	  17.0307000000
C	  19.0762000000	  27.1427000000	  16.9126000000
C	  17.6120000000	  28.5627000000	  15.9080000000
H	  20.3203000000	  28.8737000000	  16.3727000000
H	  19.5998000000	  28.8173000000	  18.0936000000
H	  19.8332000000	  26.4455000000	  16.4976000000
H	  18.8028000000	  26.6909000000	  17.8802000000
H	  16.5234000000	  28.7473000000	  15.9728000000
H	  17.9362000000	  28.7981000000	  14.8679000000
O	  15.1873000000	  31.2013000000	  20.0148000000
O	  16.9009000000	  30.9940000000	  18.4912000000
C	  14.8019000000	  31.9858000000	  18.8880000000
C	  16.1956000000	  32.1178000000	  18.1844000000
C	  16.4636000000	  30.6019000000	  19.7453000000
H	  14.0289000000	  31.5154000000	  18.2915000000
H	  14.2914000000	  32.8962000000	  19.1828000000
H	  16.1619000000	  32.4486000000	  17.1646000000
H	  16.8437000000	  32.7606000000	  18.7451000000
H	  17.2095000000	  30.8250000000	  20.5845000000
H	  16.4924000000	  29.4989000000	  19.8852000000
S	  19.7116000000	  32.6288000000	  17.5153000000
S	  20.0906000000	  32.0984000000	  19.5629000000
S	  21.8026000000	  33.3354000000	  20.3049000000
S	  20.3689000000	  36.0313000000	  24.6012000000
S	  21.2302000000	  36.0902000000	  26.4968000000
S	  20.2930000000	  37.3144000000	  27.9883000000
S	  21.7035000000	  35.6085000000	  23.0238000000
S	  21.6586000000	  33.5648000000	  22.3852000000
