49

Li	  53.0443000000	  56.6412000000	  10.6689000000
O	  52.4062000000	  56.3713000000	   8.9546000000
O	  50.6854000000	  55.4098000000	   8.0178500000
C	  52.8116000000	  55.1165000000	   8.4967200000
C	  51.7307000000	  54.6508000000	   7.4752700000
C	  51.2128000000	  56.6732000000	   8.3869100000
H	  53.7765000000	  55.1124000000	   7.9349000000
H	  52.9009000000	  54.4533000000	   9.3475400000
H	  51.8870000000	  54.8877000000	   6.4269400000
H	  51.7147000000	  53.5463000000	   7.4758300000
H	  50.5730000000	  57.2233000000	   9.0630500000
H	  51.4221000000	  57.2886000000	   7.4900900000
O	  51.8942000000	  57.9658000000	  11.4121000000
O	  51.3353000000	  56.6579000000	  13.9929000000
O	  54.4219000000	  57.6765000000	  10.3979000000
O	  51.6994000000	  54.6382000000	  15.9886000000
O	  55.3977000000	  55.0138000000	   9.7153000000
C	  50.7989000000	  58.2129000000	  12.2390000000
C	  52.6139000000	  59.1924718659	  10.9425000000
C	  50.4245000000	  56.9956000000	  12.9787000000
C	  53.7520000000	  58.8375000000	   9.9309800000
C	  50.9782000000	  56.9039000000	  15.3425000000
C	  55.5774000000	  57.4458000000	   9.6107400000
C	  51.9953000000	  56.0601000000	  16.1486000000
C	  56.3057000000	  56.1305000000	   9.8882700000
C	  52.5934000000	  53.7916000000	  16.7349000000
C	  55.9939000000	  53.8194000000	  10.2520000000
H	  51.0200000000	  59.0372000000	  12.8902000000
H	  50.0026000000	  58.4860000000	  11.4969000000
H	  51.8820000000	  59.8686488659	  10.5761000000
H	  53.0046000000	  59.5263188659	  11.9638000000
H	  49.4170000000	  57.0391000000	  13.4780000000
H	  50.3631000000	  56.2350000000	  12.2906000000
H	  53.2662000000	  58.7605000000	   8.9210000000
H	  54.4482000000	  59.7482588659	  10.1268000000
H	  51.0829000000	  57.9279000000	  15.6342000000
H	  49.9738000000	  56.5872000000	  15.5607000000
H	  55.4271000000	  57.3645000000	   8.5338000000
H	  56.4001000000	  58.2054000000	   9.6427600000
H	  52.9374000000	  56.2634000000	  15.7017000000
H	  52.0809000000	  56.3339000000	  17.1901000000
H	  57.2592000000	  55.9284000000	   9.3567500000
H	  56.4808000000	  56.1654000000	  11.0111000000
H	  53.6500000000	  54.1389000000	  16.9107000000
H	  52.1045000000	  53.5930000000	  17.7123000000
H	  52.6235000000	  52.7758000000	  16.2187000000
H	  56.0313000000	  53.9309000000	  11.3035000000
H	  55.5611000000	  52.9195000000	  10.0529000000
H	  57.0356000000	  53.6918000000	   9.9775400000
