53

Li	  24.7868000000	  49.9970000000	  21.6981000000
O	  25.0777000000	  49.5186000000	  19.8605000000
O	  27.0320000000	  49.4535000000	  18.7977000000
C	  24.9482000000	  50.5891000000	  18.9499000000
C	  26.3782000000	  50.6275000000	  18.4077000000
C	  26.0296000000	  48.7204000000	  19.2958000000
H	  24.2037000000	  50.1900000000	  18.1704000000
H	  24.6582000000	  51.4612000000	  19.5261000000
H	  26.4947000000	  50.7743000000	  17.3330000000
H	  26.9130000000	  51.4522000000	  18.8591000000
H	  26.5007000000	  48.1736000000	  20.1520000000
H	  25.5745000000	  47.9730000000	  18.6559000000
O	  26.3631000000	  49.9256000000	  22.4707000000
O	  27.7486000000	  50.4324000000	  24.2748000000
C	  27.5840000000	  50.4291000000	  22.0209000000
C	  28.0469000000	  51.2968000000	  23.2229000000
C	  26.6045000000	  49.8154000000	  23.8402000000
H	  28.2728000000	  49.5701000000	  21.8453000000
H	  27.4962000000	  50.9559000000	  21.0590000000
H	  29.0887000000	  51.4780000000	  23.0921000000
H	  27.4391000000	  52.2238000000	  23.3001000000
H	  25.7610000000	  50.1899000000	  24.4778000000
H	  26.7855000000	  48.8059000000	  24.1113000000
N	  23.3677000000	  53.6159000000	  23.5597000000
S	  23.3569000000	  52.7645000000	  22.2662000000
O	  23.1405000000	  53.5536000000	  21.0691000000
O	  24.2885000000	  51.6928000000	  22.1502000000
C	  21.8005000000	  51.9339000000	  22.3444000000
F	  21.5032000000	  51.3583000000	  21.2233000000
F	  20.8495000000	  52.8270000000	  22.6643000000
F	  21.8935000000	  51.0234000000	  23.3277000000
S	  24.2173000000	  54.9144000000	  23.7385000000
O	  23.4358000000	  56.0616000000	  24.1044000000
O	  25.2114000000	  55.0452000000	  22.7044000000
C	  25.0950000000	  54.4421000000	  25.2939000000
F	  25.7756000000	  55.4935000000	  25.7678000000
F	  24.2026000000	  53.9979000000	  26.1416000000
F	  25.9930000000	  53.4182000000	  25.1986000000
N	  22.3273000000	  47.9642000000	  20.8895000000
S	  20.9172000000	  48.4047000000	  20.3489000000
O	  20.0829000000	  49.0280000000	  21.3442000000
O	  21.0495000000	  49.0446000000	  19.0100000000
C	  20.1375000000	  46.7769000000	  20.0710000000
F	  20.1764000000	  46.0135000000	  21.1568000000
F	  20.7959000000	  46.1767000000	  19.1080000000
F	  18.9109000000	  46.8031000000	  19.6765000000
S	  22.7132000000	  47.8135000000	  22.3924000000
O	  21.5543000000	  47.6303000000	  23.2755000000
O	  23.7933000000	  48.7712000000	  22.7696000000
C	  23.5428000000	  46.1675000000	  22.4190000000
F	  24.6003000000	  46.1244000000	  21.6572000000
F	  23.9060000000	  45.7510000000	  23.6107000000
F	  22.6408000000	  45.2891000000	  21.9857000000
