28

Li	  49.5502000000	  53.6455000000	  26.1537000000
O	  52.6833000000	  54.0046000000	  23.2343000000
O	  51.0831000000	  53.7967000000	  24.8094000000
C	  52.2766000000	  52.6857000000	  23.1637000000
C	  51.6746000000	  52.5666000000	  24.5808000000
C	  51.5905000000	  54.6068000000	  23.8686000000
H	  51.5801000000	  52.5207000000	  22.3176000000
H	  53.0062000000	  52.0300000000	  22.9479000000
H	  51.0177000000	  51.6859000000	  24.6963000000
H	  52.6267000000	  52.4048000000	  25.0999000000
H	  52.0781000000	  55.4572000000	  24.3328000000
H	  50.9110000000	  54.8406000000	  23.0564000000
S	  49.4661000000	  52.7497000000	  28.2057000000
S	  51.0938000000	  54.1641000000	  28.6037000000
S	  50.9283000000	  55.9725000000	  27.5088000000
S	  52.6420000000	  60.3529988659	  28.3059000000
S	  54.4423000000	  60.0349188659	  27.3917000000
S	  54.3374000000	  60.6725988659	  25.3562000000
S	  52.1906000000	  58.6626000000	  29.5333000000
S	  50.4971000000	  57.6178000000	  28.7235000000
S	  48.0292000000	  54.7061000000	  25.0464000000
S	  47.8313000000	  52.5853000000	  24.9272000000
S	  48.1648000000	  51.7835000000	  23.0534000000
S	  44.6501000000	  48.6047000000	  23.6677000000
S	  42.8223000000	  47.6673000000	  23.0820000000
S	  42.4407000000	  45.8749000000	  24.1535000000
S	  45.9232000000	  49.2515000000	  22.0758000000
S	  46.3480000000	  51.3121000000	  22.1307000000
