46

Li	  12.0759000000	  48.2059000000	   7.3297000000
N	  13.9098000000	  51.7673000000	   8.6225900000
S	  12.8933000000	  51.5434000000	   7.4380800000
O	  13.3194000000	  52.2192000000	   6.2383900000
O	  12.3905000000	  50.2020000000	   7.2186900000
C	  11.4757000000	  52.5869000000	   7.9694100000
F	  10.5218000000	  52.6692000000	   7.1054500000
F	  11.9038000000	  53.7926000000	   8.0172700000
F	  10.9385000000	  52.3503000000	   9.1546200000
S	  13.9853000000	  50.9311000000	   9.8985900000
O	  15.2982000000	  50.3887000000	  10.1476000000
O	  12.8402000000	  50.0403000000	  10.1272000000
C	  13.7325000000	  52.2583000000	  11.1905000000
F	  12.6202000000	  52.8955000000	  11.0405000000
F	  13.5868000000	  51.7239000000	  12.4167000000
F	  14.7033000000	  53.1126000000	  11.2612000000
N	   9.0059400000	  46.4764000000	   6.7364000000
S	  10.2665000000	  45.8028000000	   6.0596700000
O	   9.9481600000	  45.2844000000	   4.7402100000
O	  11.5298000000	  46.5003000000	   6.2528300000
C	  10.4170000000	  44.2579000000	   6.9764200000
F	  10.9624000000	  44.6236000000	   8.1309300000
F	  11.2943000000	  43.4392000000	   6.3664900000
F	   9.3518700000	  43.5680000000	   7.2223300000
S	   8.9737000000	  47.6632000000	   7.6630900000
O	  10.2154000000	  48.0375000000	   8.2055800000
O	   7.9050400000	  47.7041000000	   8.5874100000
C	   8.5959700000	  49.0257000000	   6.5159000000
F	   7.4682800000	  48.7537000000	   5.7630800000
F	   8.4298500000	  50.1331000000	   7.1447600000
F	   9.6385900000	  49.2279000000	   5.7279200000
N	  14.5902000000	  46.7963000000	  10.5239000000
S	  14.5426000000	  47.2307000000	   8.9819800000
O	  13.1693000000	  47.4030000000	   8.5219300000
O	  15.5744000000	  48.1566000000	   8.5399000000
C	  14.9273000000	  45.6319000000	   8.1911700000
F	  13.8915000000	  44.8368000000	   8.5144100000
F	  16.0509000000	  45.0618000000	   8.5531500000
F	  14.8969000000	  45.6917000000	   6.9144400000
S	  15.4505000000	  47.3179000000	  11.7361000000
O	  14.6061000000	  47.7415000000	  12.8454000000
O	  16.5505000000	  48.1150000000	  11.3351000000
C	  16.1323000000	  45.7113000000	  12.3678000000
F	  16.8039000000	  45.8585000000	  13.5253000000
F	  15.2410000000	  44.7053000000	  12.5544000000
F	  17.0449000000	  45.3273000000	  11.5320000000
