61

Li	  22.8832000000	  51.2833000000	   4.9324300000
O	  24.8344000000	  47.9052000000	   4.3532900000
O	  23.3067000000	  49.5751000000	   4.2278100000
C	  25.0869000000	  48.7543000000	   3.2384500000
C	  23.7898000000	  49.4048000000	   2.9207600000
C	  23.5853000000	  48.3310000000	   4.8535300000
H	  25.8228000000	  49.3843000000	   3.6261700000
H	  25.4274000000	  48.0326000000	   2.5737600000
H	  23.9123000000	  50.3750000000	   2.3942300000
H	  23.1286000000	  48.7820000000	   2.3633500000
H	  22.7718000000	  47.7235000000	   4.4735700000
H	  23.8334000000	  48.3746000000	   6.0158900000
O	  19.3875000000	  51.9815000000	   2.9494000000
O	  21.4111000000	  51.9686000000	   3.9374000000
C	  20.4387000000	  51.9102000000	   2.0053000000
C	  21.6544000000	  52.5048000000	   2.6618500000
C	  20.0498000000	  52.2961000000	   4.1592500000
H	  20.5953000000	  50.8813000000	   1.6593200000
H	  20.3023000000	  52.5900000000	   1.1545700000
H	  22.5763000000	  52.1243000000	   2.2666100000
H	  21.6130000000	  53.5766000000	   2.6477200000
H	  19.9943000000	  53.3731000000	   4.2485200000
H	  19.7084000000	  51.7337000000	   5.0163000000
N	  26.6991000000	  51.3567000000	   7.7809600000
S	  25.8513000000	  52.3035000000	   8.7146600000
O	  26.3780000000	  53.6651000000	   8.7070300000
O	  24.3502000000	  52.1667000000	   8.7026400000
C	  26.4078000000	  51.6623000000	  10.3241000000
F	  25.9369000000	  52.3128000000	  11.3562000000
F	  27.6838000000	  51.5483000000	  10.4589000000
F	  25.9268000000	  50.4494000000	  10.5091000000
S	  26.2075000000	  50.6684000000	   6.4303600000
O	  24.9610000000	  51.1769000000	   5.8993000000
O	  26.3866000000	  49.2535000000	   6.4217900000
C	  27.5303000000	  51.1957000000	   5.2127300000
F	  28.6010000000	  50.4771000000	   5.5214400000
F	  27.1397000000	  51.0112000000	   3.9330100000
F	  27.8457000000	  52.5439000000	   5.3012800000
N	  22.5985000000	  55.0330000000	   5.2866300000
S	  22.0491000000	  55.2700000000	   6.7599900000
O	  21.8189000000	  54.0008000000	   7.4296400000
O	  22.6219000000	  56.2951000000	   7.5934400000
C	  20.3072000000	  55.8134000000	   6.3001300000
F	  20.1985000000	  56.4555000000	   5.1606600000
F	  19.7529000000	  56.5882000000	   7.2429500000
F	  19.5409000000	  54.7112000000	   6.2130500000
S	  24.0823000000	  54.4964000000	   4.9414100000
O	  24.1346000000	  53.1978000000	   4.3078700000
O	  25.0649000000	  54.7976000000	   6.0001300000
C	  24.5511000000	  55.5723000000	   3.5446800000
F	  25.7609000000	  55.3167000000	   3.0106200000
F	  23.5857000000	  55.5056000000	   2.6360000000
F	  24.5794000000	  56.8202000000	   3.9104200000
S	  21.8125000000	  50.9973000000	   6.6453400000
S	  21.4532000000	  49.6194000000	   8.2018300000
S	  23.1550000000	  49.3133000000	   9.4043100000
S	  22.7367000000	  49.9442000000	  14.2241000000
S	  22.5523000000	  48.9715000000	  16.0131000000
S	  24.2274000000	  48.9826000000	  17.2411000000
S	  23.6179000000	  48.7679000000	  12.7200000000
S	  22.5047000000	  48.1574000000	  11.0531000000
