39

Li	  38.1971000000	  58.7123000000	  28.1719000000
N	  42.1584000000	  58.9330000000	  26.2243000000
S	  41.4957000000	  58.2272000000	  27.4646000000
O	  40.0851000000	  58.4616000000	  27.7056000000
O	  42.0893000000	  56.9187000000	  27.3876000000
C	  42.3700000000	  58.9444000000	  28.8877000000
F	  42.1177000000	  58.2198000000	  29.9988000000
F	  41.9788000000	  60.1664810598	  29.0524000000
F	  43.6784000000	  58.9327000000	  28.7565000000
S	  42.0726000000	  58.4142000000	  24.7601000000
O	  41.5710000000	  59.2876690598	  23.7246000000
O	  41.6843000000	  57.0191000000	  24.6538000000
C	  43.8336000000	  58.3269000000	  24.3450000000
F	  44.3302000000	  57.1746000000	  24.7316000000
F	  44.0266000000	  58.4495000000	  23.0299000000
F	  44.4349000000	  59.3570560598	  24.9647000000
N	  38.5150000000	  60.5945210598	  24.7128000000
S	  38.3500000000	  59.1026000000	  24.2850000000
O	  39.0670000000	  58.8449000000	  23.0616000000
O	  38.4800000000	  58.1859000000	  25.3982000000
C	  36.6342000000	  59.1202000000	  23.8538000000
F	  35.9122000000	  59.3874720598	  24.8900000000
F	  36.1850000000	  57.9523000000	  23.4839000000
F	  36.3336000000	  59.9708210598	  22.8875000000
S	  38.6549000000	  61.1128110598	  26.2055000000
O	  40.0342000000	  61.5472810598	  26.4897000000
O	  37.8534000000	  60.3967910598	  27.1572000000
C	  37.6381000000	  62.6629710598	  26.1557000000
F	  37.3913000000	  63.3898210598	  27.2419000000
F	  38.0948000000	  63.5397510598	  25.2603000000
F	  36.4234000000	  62.3753710598	  25.7960000000
S	  44.4187000000	  63.8555010598	  33.1237000000
S	  43.3390000000	  63.2676010598	  31.4434000000
S	  42.3421000000	  61.4297110598	  31.6619000000
S	  38.7623000000	  58.6867000000	  30.4843000000
S	  36.7594000000	  58.1323000000	  29.9745000000
S	  36.8519000000	  57.1364000000	  28.1423000000
S	  39.0518000000	  60.7853510598	  30.2464000000
S	  40.2311000000	  61.6666410598	  31.7646000000
