28

Li	  11.3231000000	   6.0561700000	  24.3330000000
O	   8.3820800000	   7.8599500000	  25.2826000000
O	  10.5160000000	   7.7509800000	  24.7512000000
C	   9.1324500000	   8.0780900000	  26.4638000000
C	  10.6191000000	   8.1855600000	  26.1650000000
C	   9.2650600000	   8.2038400000	  24.3106000000
H	   8.6665500000	   8.9386300000	  26.9709000000
H	   8.9328700000	   7.2416600000	  27.1407000000
H	  11.0347000000	   9.1426000000	  26.2325000000
H	  11.2895000000	   7.4464300000	  26.6798000000
H	   8.9658900000	   7.6400700000	  23.4509000000
H	   9.1557400000	   9.2223600000	  24.0456000000
S	   9.7148200000	  -3.7583310598	  23.5117000000
S	  10.9707000000	  -2.1290310598	  24.1177000000
S	  10.4963000000	  -0.3372310598	  23.0798000000
S	  13.2279000000	   3.2529400000	  21.0424000000
S	  13.4166000000	   4.9936900000	  22.2284000000
S	  11.7604000000	   6.1204200000	  22.1882000000
S	  13.1752000000	   1.4957000000	  22.1756000000
S	  11.8628000000	   0.0640689402	  21.5209000000
S	   9.1342300000	   1.1424100000	  30.5369000000
S	   7.0812900000	   0.5170689402	  30.4775000000
S	   6.6658500000	  -0.1320310598	  28.4695000000
S	   8.6218000000	   4.0034300000	  26.8768000000
S	   9.8962900000	   4.6202100000	  25.2400000000
S	  11.9112000000	   4.6551200000	  25.9020000000
S	   7.7424400000	   2.2999400000	  26.0575000000
S	   6.1384100000	   1.5076100000	  27.0980000000
