31

Li	  47.4480000000	  32.8716000000	  13.6040000000
O	  46.4525000000	  34.4314000000	  13.7715000000
O	  44.7949000000	  35.7689000000	  14.6502000000
C	  47.0665000000	  35.3589000000	  14.6436000000
C	  46.0375000000	  36.5688000000	  14.7481000000
C	  45.1116000000	  34.8538000000	  13.6287000000
H	  47.1487000000	  34.8753000000	  15.5946000000
H	  48.0237000000	  35.7574000000	  14.3219000000
H	  46.1566000000	  37.1293000000	  15.6128000000
H	  46.1409000000	  37.3122000000	  13.8670000000
H	  44.8819000000	  35.5513000000	  12.7365000000
H	  44.4383000000	  33.9781000000	  13.7262000000
O	  46.4740000000	  31.5687000000	  12.6700000000
O	  46.2432000000	  30.2903000000	  10.7917000000
C	  46.4133000000	  30.2474000000	  13.1519000000
C	  46.6327000000	  29.4229000000	  11.9102000000
C	  45.8690000000	  31.5185000000	  11.4269000000
H	  47.1292000000	  30.1880000000	  13.9792000000
H	  45.4474000000	  30.0048000000	  13.5493000000
H	  47.6863000000	  29.1170000000	  11.6140000000
H	  45.8921000000	  28.6448000000	  11.8771000000
H	  44.8163000000	  31.6506000000	  11.4884000000
H	  46.2380000000	  32.3988000000	  10.8983000000
S	  49.1276000000	  32.9426000000	  12.1568000000
S	  50.1348000000	  32.2544000000	  13.8492000000
S	  51.1160000000	  33.9361000000	  14.4661000000
S	  52.7782000000	  36.5958000000	  17.7198000000
S	  52.8557000000	  37.2063000000	  19.7484000000
S	  51.6712000000	  38.9389000000	  20.1146000000
S	  51.4989000000	  34.9396000000	  17.5847000000
S	  50.2620000000	  34.9428000000	  16.0017000000
