61

Li	  12.0795000000	  48.7533000000	   6.4484800000
N	  15.8460000000	  50.7320000000	   5.5738700000
S	  14.6600000000	  50.6487000000	   4.5568400000
O	  13.6828000000	  49.6881000000	   4.9569600000
O	  14.1653000000	  51.9210000000	   4.0821100000
C	  15.3503000000	  49.8394000000	   3.0032900000
F	  14.4664000000	  49.9500000000	   1.9972600000
F	  15.6219000000	  48.5244000000	   3.0976700000
F	  16.4395000000	  50.4292000000	   2.5026900000
S	  16.2644000000	  51.9540000000	   6.4792200000
O	  16.6199000000	  51.5741000000	   7.7994600000
O	  15.4254000000	  53.0856000000	   6.3269200000
C	  17.8330000000	  52.4807000000	   5.7378400000
F	  18.0328000000	  53.8163000000	   5.9189200000
F	  18.8708000000	  51.7544000000	   6.2537800000
F	  17.8203000000	  52.2066000000	   4.4099700000
N	  12.1384000000	  51.9592000000	   9.1578400000
S	  11.7049000000	  51.7501000000	   7.6809000000
O	  12.2416000000	  52.7060000000	   6.7216900000
O	  11.6684000000	  50.3777000000	   7.2477100000
C	   9.9297200000	  52.2279000000	   7.7796700000
F	   9.4749900000	  52.2454000000	   6.5158500000
F	   9.7561300000	  53.3644000000	   8.3667900000
F	   9.1576200000	  51.3755000000	   8.4665000000
S	  13.2505000000	  51.1659000000	   9.8921500000
O	  14.4175000000	  50.9074000000	   9.0759800000
O	  12.8180000000	  50.0607000000	  10.7115000000
C	  13.8450000000	  52.4810000000	  11.0403000000
F	  12.8748000000	  52.8878000000	  11.8702000000
F	  14.8503000000	  52.0961000000	  11.8697000000
F	  14.2618000000	  53.5938000000	  10.4022000000
N	   8.8106200000	  46.7223000000	   6.4522800000
S	  10.1011000000	  46.5303000000	   5.5891300000
O	   9.9053800000	  45.7345000000	   4.3483100000
O	  10.8556000000	  47.7504000000	   5.6468000000
C	  10.9605000000	  45.3928000000	   6.6583600000
F	  11.4648000000	  45.8684000000	   7.7392800000
F	  11.9320000000	  44.8438000000	   5.9447000000
F	  10.2196000000	  44.3606000000	   7.0053800000
S	   8.5710600000	  47.3459000000	   7.8768800000
O	   9.6373800000	  48.2411000000	   8.3884400000
O	   7.9712800000	  46.4078000000	   8.8461200000
C	   7.2505100000	  48.5046000000	   7.4346400000
F	   6.1476800000	  48.0077000000	   7.0699400000
F	   6.9395400000	  49.2681000000	   8.4780400000
F	   7.6682600000	  49.1821000000	   6.3791300000
N	  14.6229000000	  46.9631000000	   9.3498700000
S	  14.8158000000	  47.5717000000	   7.8828400000
O	  13.5619000000	  47.8514000000	   7.2702500000
O	  15.9331000000	  48.4966000000	   7.7150800000
C	  15.4211000000	  46.0880000000	   7.0192400000
F	  14.5391000000	  45.1051000000	   7.1598500000
F	  16.5981000000	  45.6782000000	   7.4572800000
F	  15.6152000000	  46.3077000000	   5.6975300000
S	  15.2693000000	  47.3823000000	  10.6862000000
O	  14.3468000000	  47.5462000000	  11.7434000000
O	  16.3272000000	  48.3554000000	  10.5679000000
C	  16.1790000000	  45.8483000000	  11.1735000000
F	  15.5442000000	  44.7271000000	  10.8495000000
F	  17.3433000000	  45.8016000000	  10.4769000000
F	  16.5257000000	  45.7865000000	  12.5282000000
