28

Li	  34.6982000000	  55.9183000000	  22.4820000000
O	  33.0513000000	  56.2038000000	  23.4517000000
O	  30.9349000000	  56.5289000000	  24.1452000000
C	  32.4148000000	  54.9994000000	  23.8446000000
C	  30.8889000000	  55.2935000000	  23.5115000000
C	  32.1817000000	  57.0871000000	  23.9624000000
H	  32.7901000000	  54.1687000000	  23.3402000000
H	  32.5990000000	  54.7566000000	  24.9119000000
H	  30.7026000000	  55.4267000000	  22.4401000000
H	  30.1599000000	  54.5834000000	  23.9327000000
H	  32.4996000000	  57.6318000000	  24.8503000000
H	  32.1097000000	  57.8723000000	  23.2521000000
S	  35.4868000000	  53.9651000000	  22.1843000000
S	  34.1549000000	  53.0973000000	  20.7599000000
S	  33.3451000000	  54.4700000000	  19.3044000000
S	  30.2051000000	  57.1868000000	  17.2066000000
S	  30.2301000000	  56.9228000000	  15.1726000000
S	  31.5206000000	  58.2682000000	  14.1719000000
S	  30.0813000000	  55.2323000000	  18.0781000000
S	  31.3672000000	  55.1215000000	  19.7875000000
S	  42.4541000000	  56.1238000000	  25.1439000000
S	  41.6981000000	  55.1086000000	  26.9130000000
S	  40.2098000000	  56.1554000000	  28.0115000000
S	  36.0345000000	  56.5548000000	  24.8228000000
S	  35.7677000000	  58.0068000000	  23.2299000000
S	  35.9183000000	  57.2110000000	  21.2424000000
S	  37.4633000000	  57.2149000000	  26.2294000000
S	  38.3091000000	  55.7231000000	  27.3479000000
