28

Li	  13.4989000000	   4.5242400000	  25.9302000000
O	  16.7243000000	   1.9190800000	  25.2059000000
O	  15.0103000000	   3.4910300000	  25.2632000000
C	  16.1487000000	   1.9617000000	  23.8728000000
C	  15.2172000000	   3.2302600000	  23.8861000000
C	  16.2571000000	   3.0596400000	  25.8253000000
H	  16.9172000000	   2.1334700000	  23.1409000000
H	  15.5442000000	   1.1217200000	  23.6326000000
H	  15.7768000000	   4.0914200000	  23.4264000000
H	  14.3026000000	   3.0075800000	  23.2698000000
H	  16.0612000000	   2.7715300000	  26.8684000000
H	  16.9283000000	   3.9084700000	  25.8067000000
S	   5.4115500000	  -0.7648310598	  24.5594000000
S	   6.0715700000	   1.2098700000	  24.4331000000
S	   7.7771900000	   1.5366100000	  25.4762000000
S	  11.9610000000	   4.1529300000	  23.8206000000
S	  11.7544000000	   6.0921500000	  24.6078000000
S	  13.6046000000	   6.7021000000	  25.4411000000
S	  11.0739000000	   2.7755800000	  25.1327000000
S	   9.4284600000	   1.6600200000	  24.3337000000
S	   7.7697100000	   2.9410500000	  31.8011000000
S	   6.0519300000	   3.1940300000	  30.5414000000
S	   6.7255600000	   3.6870700000	  28.5598000000
S	  10.3787000000	   6.2948400000	  28.0789000000
S	  12.3652000000	   6.1875400000	  28.6943000000
S	  13.3075000000	   4.4464400000	  28.0074000000
S	   8.8691400000	   6.3672100000	  29.5109000000
S	   7.0848700000	   5.8158100000	  28.5820000000
