32

Li	  22.7467000000	  50.5169000000	  18.2860000000
N	  22.2551000000	  51.1030000000	  21.9348000000
S	  21.0544000000	  51.5050000000	  21.0653000000
O	  20.2828000000	  52.5524000000	  21.5991000000
O	  21.2611000000	  51.5080000000	  19.6510000000
C	  19.9554000000	  50.0809000000	  21.3440000000
F	  19.7127000000	  49.7147000000	  22.6385000000
F	  20.5714000000	  48.9788000000	  20.8399000000
F	  18.7160000000	  50.1756000000	  20.7323000000
S	  22.6353000000	  51.6708000000	  23.3149000000
O	  23.3405000000	  50.7447000000	  24.1981000000
O	  21.6028000000	  52.5352000000	  23.9209000000
C	  23.9447000000	  52.8344000000	  22.8075000000
F	  24.4901000000	  53.3829000000	  23.8516000000
F	  24.8937000000	  52.2773000000	  22.0841000000
F	  23.4980000000	  53.8678000000	  22.0468000000
S	  20.8159000000	  57.5251000000	   9.0773600000
S	  20.4604000000	  56.3761000000	  10.8349000000
S	  22.3420000000	  55.6545000000	  11.5853000000
S	  22.0212000000	  52.1492000000	  15.7092000000
S	  23.8698000000	  51.4667000000	  16.5060000000
S	  24.2800000000	  52.2031000000	  18.4736000000
S	  22.1434000000	  52.6283000000	  13.6444000000
S	  21.9972000000	  54.8017000000	  13.5256000000
S	  21.2775000000	  49.0557000000	  17.7753000000
S	  22.4238000000	  47.5341000000	  16.9218000000
S	  24.4771000000	  47.7481000000	  16.8726000000
S	  27.6838000000	  49.6896000000	  19.8939000000
S	  27.7313000000	  51.6229000000	  18.9228000000
S	  27.6433000000	  53.3049000000	  20.2294000000
S	  25.6880000000	  48.8891000000	  19.9923000000
S	  25.4159000000	  47.2677000000	  18.7998000000
