38

Li	  33.4661000000	  47.1935000000	   2.5831000000
O	  34.8450000000	  45.6902000000	   2.8549000000
O	  35.3766000000	  47.7535000000	   2.8948000000
C	  35.4106000000	  45.8731000000	   1.5747500000
C	  35.7547000000	  47.3619000000	   1.5837900000
C	  35.4590000000	  46.5923000000	   3.6872700000
H	  36.2716000000	  45.1675000000	   1.6759600000
H	  34.6898000000	  45.7655000000	   0.7941640000
H	  36.8651000000	  47.4778000000	   1.4694400000
H	  35.3707000000	  47.9626000000	   0.7446210000
H	  35.0866000000	  46.8417000000	   4.6135200000
H	  36.5183000000	  46.3502000000	   3.8045600000
O	  32.1444000000	  45.7756000000	   2.0380700000
O	  30.7822000000	  44.3991000000	   0.8417670000
C	  31.7286000000	  44.7118000000	   2.8730300000
C	  31.3144000000	  43.6038000000	   1.8554800000
C	  31.0293000000	  45.7624000000	   1.2646800000
H	  32.5928000000	  44.4087000000	   3.4496400000
H	  30.8922000000	  44.9443000000	   3.5371500000
H	  32.2500000000	  43.1260000000	   1.5212200000
H	  30.7131000000	  42.8077000000	   2.2034500000
H	  30.1635000000	  46.2598000000	   1.7364300000
H	  31.2101000000	  46.3346000000	   0.3891123565
N	  31.8230000000	  49.7752000000	   3.7482100000
S	  31.9401000000	  48.5842000000	   4.7949400000
O	  30.9091000000	  48.5209000000	   5.8046600000
O	  32.4554000000	  47.3247000000	   4.2147800000
C	  33.2902000000	  49.0598000000	   5.8879000000
F	  34.3450000000	  49.6959000000	   5.3280000000
F	  33.7735000000	  47.9977000000	   6.4781700000
F	  32.9140000000	  49.8635000000	   6.9342100000
S	  32.0471000000	  49.8527000000	   2.2155600000
O	  30.8857000000	  49.9689000000	   1.3821300000
O	  33.0700000000	  48.9854000000	   1.6946900000
C	  32.8791000000	  51.5155000000	   1.9762800000
F	  32.6882000000	  51.9868000000	   0.7782750000
F	  32.4570000000	  52.3983000000	   2.8986600000
F	  34.2282000000	  51.4407000000	   2.0370300000
