20

Li	  51.4126000000	  41.7853000000	   3.3196900000
O	  51.3988000000	  43.1162000000	   1.9735700000
O	  51.6318000000	  43.6303000000	  -0.2609876435
C	  52.5739000000	  43.8264000000	   1.7320200000
C	  52.9675000000	  43.6617000000	   0.3413123565
C	  50.9695000000	  42.8701000000	   0.6789123565
H	  52.4590000000	  44.8580000000	   1.8890000000
H	  53.4841000000	  43.6381000000	   2.3537600000
H	  53.6290000000	  44.5528000000	   0.1024123565
H	  53.7092000000	  42.8237000000	   0.3481123565
H	  51.0450000000	  41.8648000000	   0.3747123565
H	  49.9419000000	  42.9837000000	   0.4708123565
S	  49.7556000000	  41.3816000000	   4.3926900000
S	  49.5726000000	  40.2933000000	   2.5821900000
S	  50.9406000000	  38.7882000000	   2.2832300000
S	  55.6104000000	  40.4984000000	   2.1295400000
S	  55.3508000000	  40.7781000000	   4.1868700000
S	  53.4221000000	  41.5505000000	   4.4229600000
S	  54.4978000000	  38.8490000000	   1.5044300000
S	  52.5545000000	  39.1786000000	   0.8130950000
