53

Li	  14.3258000000	   5.2626700000	  17.2894000000
O	  15.4323000000	   6.7386800000	  17.7837000000
O	  14.9252000000	   8.3164100000	  19.1620000000
C	  15.7712000000	   7.9534900000	  17.1077000000
C	  15.4452000000	   9.0454800000	  18.1242000000
C	  15.4952000000	   7.1122200000	  19.1049000000
H	  16.7811000000	   7.8485200000	  16.8107000000
H	  15.1477000000	   8.1413100000	  16.2599000000
H	  16.3025000000	   9.5729700000	  18.5310000000
H	  14.6494000000	   9.6770600000	  17.8372000000
H	  14.9153000000	   6.4212100000	  19.7033000000
H	  16.5606000000	   7.2537100000	  19.4645000000
O	  10.6191000000	   6.8820700000	  18.5618000000
O	  12.6427000000	   6.1919900000	  17.6653000000
C	  10.4223000000	   6.6998400000	  17.1011000000
C	  11.8698000000	   6.7865900000	  16.6318000000
C	  11.9027000000	   6.4023500000	  18.8334000000
H	  10.0173000000	   5.6908300000	  17.0274000000
H	   9.8182900000	   7.4850300000	  16.5980000000
H	  12.1051000000	   6.3688500000	  15.6341000000
H	  12.1415000000	   7.8352500000	  16.7165000000
H	  12.2615000000	   7.2051300000	  19.4221000000
H	  11.9772000000	   5.5058400000	  19.4932000000
N	  14.9872000000	   4.9515600000	  12.5592000000
S	  14.8330000000	   6.0105100000	  13.6882000000
O	  13.6770000000	   6.8816100000	  13.5960000000
O	  15.2280000000	   5.4781900000	  15.0268000000
C	  16.1849000000	   7.2565500000	  13.3343000000
F	  16.2728000000	   8.3704800000	  14.1145000000
F	  16.0524000000	   7.6415900000	  12.0998000000
F	  17.3933000000	   6.7100300000	  13.4173000000
S	  15.2944000000	   3.3729400000	  12.5634000000
O	  14.1973000000	   2.5581500000	  12.2838000000
O	  16.2308000000	   2.8569500000	  13.4945000000
C	  16.2852000000	   3.2246400000	  11.0622000000
F	  17.3988000000	   3.9197300000	  11.2058000000
F	  16.5701000000	   1.9651900000	  10.7900000000
F	  15.7275000000	   3.7365300000	  10.0056000000
N	  11.4971000000	   3.6984900000	  14.9255000000
S	  10.6140000000	   3.1807700000	  13.7188000000
O	  11.3136000000	   2.4285000000	  12.7185000000
O	   9.2182600000	   2.8772900000	  14.0523000000
C	  10.3290000000	   4.7093100000	  12.8209000000
F	  11.4468000000	   5.3304600000	  12.4800000000
F	   9.5334600000	   5.5484100000	  13.3391000000
F	   9.7432300000	   4.4396100000	  11.6659000000
S	  12.4066000000	   2.8257000000	  15.8287000000
O	  13.6409000000	   3.5206400000	  16.3273000000
O	  12.5799000000	   1.4292000000	  15.4019000000
C	  11.3298000000	   2.5622700000	  17.3120000000
F	  10.2773000000	   1.7967600000	  17.0676000000
F	  11.9632000000	   1.9178000000	  18.2658000000
F	  10.9311000000	   3.6853800000	  17.9178000000
