43

Li	  21.5661000000	  49.0085000000	  17.5482000000
O	  21.8544000000	  52.7768000000	  15.1436000000
O	  21.5868000000	  51.1650000000	  16.7726000000
C	  21.3751000000	  53.4438000000	  16.3009000000
C	  20.9013000000	  52.2837000000	  17.2040000000
C	  21.7251000000	  51.3943000000	  15.4351000000
H	  22.1642000000	  53.9140000000	  16.8552000000
H	  20.5640000000	  54.1445000000	  16.1065000000
H	  21.0121000000	  52.4418000000	  18.3184000000
H	  19.7982000000	  52.1307000000	  17.1734000000
H	  20.9594000000	  50.8728000000	  14.8678000000
H	  22.6989000000	  50.8654000000	  15.0831000000
N	  19.5230000000	  48.2262000000	  20.6114000000
S	  20.0561000000	  46.8021000000	  20.2301000000
O	  18.9889000000	  45.8344000000	  20.2593000000
O	  20.9733000000	  46.7650000000	  19.1260000000
C	  21.0227000000	  46.2975000000	  21.6666000000
F	  22.1323000000	  46.9917000000	  21.6467000000
F	  21.3695000000	  44.9748000000	  21.6381000000
F	  20.3825000000	  46.5217000000	  22.8021000000
S	  20.3410000000	  49.5495000000	  20.5994000000
O	  21.1424000000	  49.7898000000	  19.4186000000
O	  20.8532000000	  49.8730000000	  21.9067000000
C	  19.0341000000	  50.8519000000	  20.3505000000
F	  18.1396000000	  50.8143000000	  21.3306000000
F	  19.4976000000	  52.0733000000	  20.3625000000
F	  18.2763000000	  50.6535000000	  19.3187000000
S	  20.4794000000	  46.9415000000	   6.2457300000
S	  19.8045000000	  46.9336000000	   8.2439100000
S	  21.0308000000	  45.5354000000	   9.4386100000
S	  21.2892000000	  48.0215000000	  13.6336000000
S	  20.1198000000	  47.1740000000	  15.1936000000
S	  19.7352000000	  48.5507000000	  16.7804000000
S	  22.2464000000	  46.4036000000	  12.5564000000
S	  22.4041000000	  46.7384000000	  10.5744000000
S	  23.6954000000	  49.0272000000	  16.7025000000
S	  24.9737000000	  48.0457000000	  17.9692000000
S	  24.3441000000	  48.2938000000	  19.9947000000
S	  25.7832000000	  52.9356000000	  19.3772000000
S	  25.3377000000	  52.5658000000	  17.3056000000
S	  26.8718000000	  51.4590000000	  16.3385000000
S	  24.6391000000	  51.7091000000	  20.6651000000
S	  25.4871000000	  49.8020000000	  20.9373000000
