46

Li	  19.1816000000	  39.6031000000	  41.5744000000
O	  21.1365000000	  38.8347000000	  41.1496000000
O	  23.2816000000	  37.8749000000	  41.1733000000
C	  21.1914000000	  37.9288000000	  40.0805000000
C	  22.7402000000	  37.7779000000	  39.9010000000
C	  22.2293000000	  38.3826000000	  41.9613000000
H	  20.7995000000	  37.0095000000	  40.3806000000
H	  20.8665000000	  38.3459000000	  39.1723000000
H	  23.0444000000	  36.8783000000	  39.4795000000
H	  23.1199000000	  38.4976000000	  39.1998000000
H	  22.5277000000	  39.2063000000	  42.5813000000
H	  21.7683000000	  37.5748000000	  42.5039000000
O	  19.5468000000	  40.9928000000	  40.0029000000
O	  20.3624000000	  42.7580000000	  38.7636000000
C	  20.3047000000	  41.8221000000	  40.8190000000
C	  21.1665000000	  42.6698000000	  39.8524000000
C	  19.6402000000	  41.5590000000	  38.7010000000
H	  19.6190000000	  42.4435000000	  41.3196000000
H	  20.7351000000	  41.2990000000	  41.6609000000
H	  21.5467000000	  43.6491000000	  40.2126000000
H	  22.1253000000	  42.2011000000	  39.6095000000
H	  20.1491000000	  40.8281000000	  38.0220000000
H	  18.6923000000	  41.7464000000	  38.2700000000
N	  15.8668000000	  39.3595000000	  40.0073000000
S	  15.9307000000	  40.2243000000	  41.2653000000
O	  15.2344000000	  39.6978000000	  42.3797000000
O	  17.1472000000	  40.9378000000	  41.5107000000
C	  14.9020000000	  41.6507000000	  40.7376000000
F	  15.5856000000	  42.2932000000	  39.8526000000
F	  14.6308000000	  42.4521000000	  41.7703000000
F	  13.7564000000	  41.3440000000	  40.3158000000
S	  17.0390000000	  38.4244000000	  39.4455000000
O	  18.1936000000	  38.4405000000	  40.2925000000
O	  17.2831000000	  38.5106000000	  38.0369000000
C	  16.3627000000	  36.7252000000	  39.6084000000
F	  15.1111000000	  36.7562000000	  39.2212000000
F	  17.0624000000	  35.8273000000	  38.8702000000
F	  16.3209000000	  36.2805000000	  40.8410000000
S	  19.0265000000	  39.1412000000	  43.6934000000
S	  18.0817000000	  37.2818000000	  43.5018000000
S	  19.2924000000	  35.8370000000	  42.6013000000
S	  18.3785000000	  31.0865000000	  45.2277000000
S	  16.8316000000	  31.3467000000	  46.6664000000
S	  17.4842000000	  30.6647000000	  48.5192000000
S	  18.2912000000	  32.5247000000	  43.6189000000
S	  19.7282000000	  34.0747000000	  43.6862000000
