20

Li	  20.2004000000	  45.5469000000	  17.8752000000
O	  18.9399000000	  47.0951000000	  17.4337000000
O	  18.5402000000	  49.2475000000	  17.0421000000
C	  17.5305000000	  47.1270000000	  17.1841000000
C	  17.4392000000	  48.4735000000	  16.4522000000
C	  19.2440000000	  48.3505000000	  17.8351000000
H	  17.2496000000	  46.2136000000	  16.5963000000
H	  16.9874000000	  47.1247000000	  18.1289000000
H	  17.7416000000	  48.1885000000	  15.4677000000
H	  16.4360000000	  48.9620000000	  16.5123000000
H	  18.8955000000	  48.4924000000	  18.8723000000
H	  20.3715000000	  48.4947000000	  17.9322000000
S	  22.0353000000	  45.0016000000	   7.6145600000
S	  21.8606000000	  43.6464000000	   9.2287100000
S	  21.9560000000	  44.5256000000	  11.1224000000
S	  19.3772000000	  44.1893000000	  15.2815000000
S	  19.7669000000	  43.0909000000	  17.1362000000
S	  18.9032000000	  44.1823000000	  18.7148000000
S	  19.7689000000	  43.0934000000	  13.5745000000
S	  20.0038000000	  44.3455000000	  11.9446000000
