34

Li	  22.0774000000	  45.5956000000	   9.5766400000
O	  23.5599000000	  45.8102000000	   8.6638500000
O	  25.4016000000	  44.7234000000	   8.4573200000
C	  24.4684000000	  46.6149000000	   9.3448600000
C	  25.7707000000	  45.8049000000	   9.2408600000
C	  24.3261000000	  45.1588000000	   7.7466300000
H	  24.4316000000	  47.5387000000	   8.7828000000
H	  24.1091000000	  46.9026000000	  10.3012000000
H	  26.5594000000	  46.3604000000	   8.8273200000
H	  26.0571000000	  45.3146000000	  10.2364000000
H	  23.8323000000	  44.3142000000	   7.2778600000
H	  24.7371000000	  45.7882000000	   6.9600600000
O	  20.7380000000	  46.4157000000	   8.5048700000
O	  19.9265000000	  47.0491000000	   6.4656400000
C	  19.3185000000	  46.3536000000	   8.5416900000
C	  19.0219000000	  46.1715000000	   7.0539900000
C	  20.9273000000	  47.1739000000	   7.3889100000
H	  19.0544000000	  45.5164000000	   9.1654600000
H	  18.8781000000	  47.2965000000	   8.9624900000
H	  19.2850000000	  45.2120000000	   6.7335700000
H	  17.9900000000	  46.4369000000	   6.6893200000
H	  20.8263000000	  48.2232000000	   7.6738300000
H	  21.9080000000	  47.0395000000	   7.0275700000
O	  19.2436000000	  46.5143000000	  11.8878000000
O	  21.3969000000	  46.4965000000	  11.5061000000
C	  19.5127000000	  47.8889000000	  11.6036000000
C	  21.0043000000	  47.8548000000	  11.3175000000
C	  20.4339000000	  46.0630000000	  12.4041000000
H	  18.9281000000	  48.2687000000	  10.8049000000
H	  19.2223000000	  48.3933000000	  12.5354000000
H	  21.2145000000	  48.1528000000	  10.2659000000
H	  21.5164000000	  48.4798000000	  12.0521000000
H	  20.6920000000	  46.2578000000	  13.3933000000
H	  20.5073000000	  45.0137000000	  12.2933000000
