35

Li	  38.9228000000	  36.3764000000	   9.0956200000
O	  38.9171000000	  36.3546000000	   7.3358500000
O	  37.0067000000	  37.3030000000	   6.5697900000
C	  38.3784000000	  35.4117000000	   6.4996700000
C	  36.9590000000	  35.9344000000	   6.2280000000
C	  38.3667000000	  37.5087000000	   6.8899000000
H	  39.0024000000	  35.2317000000	   5.5479000000
H	  38.2639000000	  34.4550000000	   6.9579600000
H	  36.5881000000	  35.7365000000	   5.2614200000
H	  36.2507000000	  35.5495000000	   6.9864100000
H	  38.4119000000	  38.2735000000	   7.6216400000
H	  38.8020000000	  37.8424000000	   5.9383400000
N	  42.8471000000	  37.3834000000	   7.8522400000
S	  41.7444000000	  38.1506000000	   8.6933600000
O	  41.3057000000	  39.3757000000	   8.0962300000
O	  40.8410000000	  37.2342000000	   9.2912100000
C	  42.6527000000	  38.7443000000	  10.1251000000
F	  42.9928000000	  37.7511000000	  10.9618000000
F	  41.9369000000	  39.6049000000	  10.8790000000
F	  43.7312000000	  39.4157000000	   9.7597800000
S	  42.7306000000	  36.1398000000	   6.8589800000
O	  42.6129000000	  36.6753000000	   5.5445500000
O	  41.8308000000	  35.0903000000	   7.2514200000
C	  44.3905000000	  35.3535000000	   6.9313200000
F	  45.3131000000	  36.2026000000	   6.4843100000
F	  44.7706000000	  35.0236000000	   8.1616300000
F	  44.4794000000	  34.2634000000	   6.1083400000
S	  40.5462000000	  30.8373000000	  17.3820000000
S	  41.1624000000	  32.7930000000	  16.8063000000
S	  39.9373000000	  34.2699000000	  17.2139000000
S	  39.1200000000	  36.6270000000	  13.0771000000
S	  37.7749000000	  36.2998000000	  11.4816000000
S	  38.0754000000	  34.6728000000	  10.2336000000
S	  38.3428000000	  36.4524000000	  14.9631000000
S	  38.4873000000	  34.5233000000	  15.6825000000
