43

Li	   2.5000200000	   3.5575900000	  20.4562000000
O	   2.5317500000	   5.6171800000	  20.5375000000
O	   2.3908100000	   7.8684200000	  20.7492000000
C	   1.3933300000	   6.0043400000	  19.8541000000
C	   1.1094100000	   7.3940600000	  20.4121000000
C	   3.1721700000	   6.7905600000	  20.7810000000
H	   1.5677800000	   6.1427700000	  18.7729000000
H	   0.5686792605	   5.3420600000	  20.1123000000
H	   0.4305792605	   7.9869400000	  19.8299000000
H	   0.6713792605	   7.2660300000	  21.3895000000
H	   3.7388000000	   6.7138600000	  21.7580000000
H	   3.8237200000	   7.0365200000	  19.9367000000
N	   0.4697792605	   1.6802500000	  16.9239000000
S	   0.4678792605	   1.5524100000	  18.5061000000
O	   0.4178792605	   0.2156689402	  19.0457000000
O	   1.3849100000	   2.4804000000	  19.1934000000
C	  -1.1585207395	   2.2132800000	  19.0745000000
F	  -1.0501207395	   2.8646800000	  20.2380000000
F	  -2.1431207395	   1.3273400000	  19.1426000000
F	  -1.5836207395	   3.0700300000	  18.2069000000
S	   1.6160600000	   2.3925000000	  16.0648000000
O	   1.8386200000	   1.8115300000	  14.7992000000
O	   2.7990000000	   2.8891100000	  16.7561000000
C	   0.7760010000	   3.8953700000	  15.6298000000
F	  -0.2871207395	   3.7136400000	  14.8448000000
F	   0.4778792605	   4.5166100000	  16.7582000000
F	   1.4569200000	   4.8529200000	  15.0750000000
S	   4.4912100000	   2.4687400000	  20.1011000000
S	   5.3364100000	   4.1050000000	  21.1358000000
S	   7.3155300000	   4.4496800000	  20.6607000000
S	  11.0398000000	   5.6192100000	  24.3818000000
S	  13.1422000000	   6.0764000000	  24.4699000000
S	  13.4311000000	   7.3506100000	  26.1406000000
S	  10.4610000000	   5.0941200000	  22.3332000000
S	   8.5392500000	   4.1333800000	  22.3802000000
S	   2.5966000000	  -2.9978310598	  29.6182000000
S	   2.8954400000	  -0.9435310598	  29.2899000000
S	   1.2652800000	   0.4104689402	  29.6149000000
S	   1.7298300000	   3.3651600000	  25.8924000000
S	   1.5241200000	   2.1830800000	  24.0942000000
S	   1.3759500000	   3.4554800000	  22.4467000000
S	   0.3809792605	   2.8336000000	  27.4423000000
S	   1.4616000000	   2.4747700000	  29.1425000000
