28

Li	  21.2890000000	  45.7417000000	  17.1979000000
O	  19.8391000000	  47.2878000000	  17.6208000000
O	  19.8865000000	  49.2453000000	  16.7351000000
C	  18.5809000000	  47.3375000000	  16.9901000000
C	  18.8959000000	  48.5661000000	  16.1162000000
C	  20.2371000000	  48.5893000000	  17.8610000000
H	  18.3508000000	  46.4918000000	  16.3047000000
H	  17.8063000000	  47.5317000000	  17.7351000000
H	  19.2609000000	  48.3382000000	  15.1628000000
H	  18.0448000000	  49.2904000000	  16.0648000000
H	  19.6924000000	  48.8578000000	  18.7212000000
H	  21.3215000000	  48.7378000000	  17.9589000000
S	  21.6035000000	  44.5477000000	   6.5700600000
S	  22.0341000000	  43.6478000000	   8.3488900000
S	  22.2873000000	  44.9249000000	  10.0067000000
S	  19.7695000000	  45.0793000000	  14.3596000000
S	  19.2349000000	  43.9393000000	  15.9642000000
S	  20.8748000000	  43.6897000000	  17.2044000000
S	  20.1172000000	  43.9808000000	  12.5216000000
S	  20.4022000000	  45.2079000000	  10.9161000000
S	  22.6170000000	  46.6791000000	  16.1270000000
S	  23.5257000000	  45.7730000000	  17.7598000000
S	  22.5950000000	  46.1608000000	  19.6255000000
S	  25.0373000000	  50.2585000000	  19.1857000000
S	  24.5347000000	  49.9181000000	  17.1861000000
S	  25.8657000000	  48.5330000000	  16.2856000000
S	  23.5191000000	  49.5529000000	  20.3806000000
S	  23.8849000000	  47.4819000000	  20.7737000000
