31

Li	   8.6415300000	  43.4244000000	  48.4869000000
O	  12.2440000000	  41.9680000000	  48.8962000000
O	  10.4508000000	  43.2352000000	  48.5744000000
C	  12.7560000000	  43.2361000000	  48.9472000000
C	  11.5313000000	  44.1349000000	  48.7551000000
C	  11.1082000000	  42.0693000000	  48.1186000000
H	  13.1236000000	  43.4018000000	  49.9751000000
H	  13.4836000000	  43.4549000000	  48.1853000000
H	  11.3428000000	  44.7735000000	  49.5655000000
H	  11.7989000000	  44.7216000000	  47.9034000000
H	  11.5623000000	  42.0392000000	  47.0813000000
H	  10.4580000000	  41.1436000000	  48.1563000000
O	   6.4575100000	  41.2034000000	  46.0271000000
O	   8.2155200000	  41.8310000000	  47.3384000000
C	   6.1679800000	  40.9429000000	  47.4148000000
C	   7.5425100000	  40.7052000000	  47.9542000000
C	   7.6260400000	  41.9541000000	  46.0790000000
H	   5.6324800000	  41.7265000000	  47.8011000000
H	   5.6974300000	  40.0293000000	  47.6061000000
H	   7.5975600000	  40.4958000000	  48.9732000000
H	   8.0636000000	  39.8457000000	  47.5073000000
H	   8.3845100000	  41.7025000000	  45.3182000000
H	   7.2482800000	  43.0202000000	  46.0241000000
S	   7.0320500000	  47.8539000000	  39.2189000000
S	   6.6530000000	  46.5035000000	  40.7674000000
S	   7.4177100000	  47.3058000000	  42.5701000000
S	   8.5972700000	  45.4382000000	  47.2997000000
S	   7.9305000000	  45.4183000000	  49.3624000000
S	   6.9425700000	  43.6062000000	  49.7737000000
S	   8.0180600000	  47.0404000000	  46.0136000000
S	   6.8675100000	  46.4207000000	  44.3469000000
