46

Li	  21.9146000000	  36.8704000000	  19.9295000000
O	  18.4600000000	  35.4629000000	  18.6977000000
O	  20.1764000000	  36.5072000000	  19.7579000000
C	  18.2219000000	  36.8064000000	  18.5739000000
C	  19.5162000000	  37.4939000000	  18.9692000000
C	  19.5461000000	  35.3444000000	  19.5978000000
H	  17.8658000000	  37.0040000000	  17.6284000000
H	  17.4207000000	  37.1368000000	  19.2373000000
H	  19.9048000000	  37.7940000000	  18.0611000000
H	  19.3744000000	  38.3961000000	  19.5135000000
H	  19.3680000000	  35.0083000000	  20.5892000000
H	  20.2845000000	  34.7237000000	  19.1251000000
O	  21.5147000000	  40.5530000000	  21.5549000000
O	  22.0499000000	  38.7959000000	  20.1732000000
C	  22.3673000000	  41.0920000000	  20.6004000000
C	  22.6070000000	  39.9249000000	  19.5998000000
C	  21.8126000000	  39.1564000000	  21.5296000000
H	  21.9224000000	  41.9054000000	  20.0375000000
H	  23.2968000000	  41.4213000000	  20.9946000000
H	  22.0759000000	  40.0058000000	  18.5958000000
H	  23.6643000000	  39.9203000000	  19.4043000000
H	  22.7094000000	  38.7986000000	  22.0832000000
H	  20.8957000000	  38.7138000000	  21.8265000000
N	  21.4297000000	  36.1598000000	  24.1639000000
S	  19.9012000000	  36.2620000000	  23.8308000000
O	  19.4974000000	  37.5882000000	  23.5381000000
O	  19.5231000000	  35.2092000000	  22.9244000000
C	  19.0637000000	  35.7586000000	  25.3808000000
F	  19.3482000000	  36.5377000000	  26.4058000000
F	  19.1975000000	  34.4839000000	  25.7354000000
F	  17.7484000000	  35.8992000000	  25.2060000000
S	  22.5087000000	  35.6430000000	  23.2079000000
O	  22.4177000000	  36.2198000000	  21.8439000000
O	  22.7371000000	  34.1965000000	  23.3404000000
C	  24.0293000000	  36.2288000000	  23.9502000000
F	  24.2483000000	  35.5654000000	  25.0316000000
F	  25.1059000000	  36.1110000000	  23.2259000000
F	  23.9180000000	  37.5183000000	  24.2500000000
S	  23.8819000000	  36.7047000000	  18.5953000000
S	  23.0113000000	  37.7767000000	  16.8706000000
S	  23.6297000000	  37.0735000000	  14.9220000000
S	  18.7379000000	  37.7561000000	  13.1972000000
S	  18.0330000000	  38.7810000000	  14.8514000000
S	  16.8695000000	  40.4016000000	  14.3078000000
S	  20.8826000000	  37.9435000000	  12.8966000000
S	  22.0764000000	  36.3506000000	  13.6963000000
