38

Li	  16.7481000000	   7.5682300000	  23.1451000000
O	  18.3023000000	   8.0001400000	  24.0810000000
O	  20.1509000000	   8.7729400000	  25.0749000000
C	  19.3962000000	   7.5342200000	  23.2403000000
C	  20.6076000000	   7.9604100000	  24.0421000000
C	  18.8668000000	   8.3281000000	  25.2776000000
H	  19.1787000000	   6.4573100000	  23.0590000000
H	  19.2782000000	   8.0385200000	  22.2849000000
H	  21.1771000000	   7.0870200000	  24.4047000000
H	  21.1781000000	   8.4604000000	  23.3364000000
H	  18.2427000000	   9.1281800000	  25.6391000000
H	  18.7330000000	   7.5402400000	  25.9744000000
O	  15.2071000000	   4.0607500000	  21.6381000000
O	  16.3591000000	   5.9028000000	  22.1756000000
C	  15.7388000000	   4.3323500000	  20.4229000000
C	  16.7579000000	   5.4869100000	  20.8734000000
C	  15.1728000000	   5.1819900000	  22.4328000000
H	  16.3057000000	   3.5102300000	  20.0778000000
H	  14.9469000000	   4.7332000000	  19.8241000000
H	  17.7449000000	   5.0909600000	  21.1061000000
H	  16.8289000000	   6.3280900000	  20.2640000000
H	  14.4652000000	   5.9033100000	  22.1632000000
H	  14.9809000000	   4.9580000000	  23.4421000000
N	  15.0575000000	  10.6612000000	  22.1062000000
S	  15.7560000000	   9.7711700000	  21.0377000000
O	  16.9105000000	   9.0359900000	  21.5267000000
O	  14.8230000000	   9.1816500000	  20.1310000000
C	  16.6046000000	  11.0220000000	  19.9719000000
F	  17.5619000000	  10.5353000000	  19.1913000000
F	  17.2601000000	  11.8907000000	  20.7923000000
F	  15.7434000000	  11.7158000000	  19.2271000000
S	  14.9215000000	  10.2992000000	  23.5529000000
O	  15.5530000000	   9.0610900000	  23.8806000000
O	  13.6458000000	  10.5850000000	  24.1559000000
C	  16.0985000000	  11.4700000000	  24.3107000000
F	  17.2700000000	  11.2056000000	  23.7515000000
F	  15.7621000000	  12.6893000000	  24.0327000000
F	  16.1803000000	  11.3561000000	  25.6460000000
