53

Li	  34.4610000000	  51.1287000000	   6.5856900000
O	  33.6255000000	  49.3951000000	   5.8648700000
O	  32.0637000000	  50.8359000000	   6.4132300000
C	  33.2491000000	  50.0066000000	   4.6262400000
C	  31.9935000000	  50.7868000000	   4.9551300000
C	  32.4812000000	  49.5833000000	   6.6671800000
H	  34.0243000000	  50.6416000000	   4.2502300000
H	  33.1906000000	  49.2906000000	   3.7624800000
H	  31.9957000000	  51.7875000000	   4.5427300000
H	  31.1633000000	  50.2520000000	   4.5493400000
H	  31.7525000000	  48.7684000000	   6.3788500000
H	  32.7847000000	  49.4661000000	   7.7646800000
O	  34.4609000000	  53.0111000000	   7.1054300000
O	  33.3645000000	  54.3344000000	   8.6912700000
C	  35.0234000000	  54.2829000000	   7.0360900000
C	  33.9774000000	  55.1528000000	   7.7382800000
C	  33.9398000000	  53.0889000000	   8.4866200000
H	  35.9914000000	  54.2616000000	   7.5688100000
H	  35.2073000000	  54.5995000000	   6.0000500000
H	  34.3931000000	  56.1189000000	   8.0995800000
H	  33.2109000000	  55.5082000000	   7.0668600000
H	  33.2090000000	  52.2743000000	   8.6431300000
H	  34.6693000000	  52.9890000000	   9.2335200000
N	  37.3711000000	  48.8617000000	   8.8501600000
S	  38.3579000000	  48.2715000000	   7.8146800000
O	  38.0041000000	  46.9156000000	   7.4846600000
O	  38.7422000000	  49.2554000000	   6.8217800000
C	  39.8705000000	  48.1811000000	   8.9442600000
F	  39.5815000000	  47.5449000000	  10.0578000000
F	  40.2452000000	  49.3642000000	   9.3229100000
F	  40.9193000000	  47.5627000000	   8.3773100000
S	  36.9052000000	  50.3757000000	   8.9049500000
O	  35.6253000000	  50.6054000000	   8.2709400000
O	  37.9062000000	  51.3921000000	   8.6998500000
C	  36.4287000000	  50.4087000000	  10.6994000000
F	  35.3964000000	  49.6482000000	  10.9998000000
F	  37.3991000000	  49.9934000000	  11.4976000000
F	  36.1681000000	  51.6707000000	  11.1568000000
N	  37.2580000000	  50.2024000000	   3.2412500000
S	  37.4516000000	  48.7035000000	   3.5593600000
O	  38.7060000000	  48.1626000000	   3.1560400000
O	  36.8858000000	  48.2634000000	   4.7928400000
C	  36.3299000000	  47.9524000000	   2.3124400000
F	  35.0334000000	  48.2668000000	   2.5066400000
F	  36.4189000000	  46.6308000000	   2.1876400000
F	  36.6674000000	  48.3921000000	   1.0926200000
S	  37.1464000000	  51.3161000000	   4.3333300000
O	  38.4328000000	  51.6496000000	   4.8366700000
O	  36.0625000000	  51.1774000000	   5.3018300000
C	  36.7112000000	  52.8654000000	   3.4600700000
F	  37.7397000000	  53.2935000000	   2.8083100000
F	  35.8107000000	  52.6716000000	   2.5275100000
F	  36.4033000000	  53.8045000000	   4.2875000000
