45

Li	  14.5450000000	  29.0244000000	  22.9169000000
O	  14.4489000000	  26.1392000000	  25.6800000000
O	  14.9802000000	  27.7509000000	  24.1750000000
C	  15.5040000000	  25.5241000000	  25.0282000000
C	  15.7871000000	  26.5858000000	  23.9492000000
C	  14.5387000000	  27.5010000000	  25.4549000000
H	  16.4389000000	  25.5195000000	  25.5816000000
H	  15.3215000000	  24.5044000000	  24.6216000000
H	  16.7761000000	  27.0248000000	  23.9542000000
H	  15.5370000000	  26.0744000000	  23.0396000000
H	  13.5600000000	  27.9566000000	  25.7254000000
H	  15.2730000000	  27.9218000000	  26.1257000000
O	  12.7212000000	  29.4958000000	  23.0861000000
O	  10.8017000000	  29.9978000000	  24.0993000000
C	  11.9074000000	  28.4045000000	  22.9169000000
C	  10.8732000000	  28.5949000000	  23.9553000000
C	  11.8899000000	  30.5061000000	  23.4837000000
H	  11.5752000000	  28.4134000000	  21.8477000000
H	  12.4602000000	  27.4876000000	  22.9464000000
H	   9.9309500000	  28.1969000000	  23.7377000000
H	  11.2169000000	  28.2151000000	  24.8643000000
H	  12.4387000000	  31.3249000000	  24.1138000000
H	  11.4579000000	  31.0642000000	  22.5611000000
O	  14.5150000000	  28.1133000000	  21.0723000000
O	  13.8882000000	  26.6937000000	  19.4695000000
C	  15.0785000000	  28.6768000000	  19.8923000000
C	  14.5550000000	  27.7309000000	  18.8179000000
C	  14.1943000000	  26.8037000000	  20.7822000000
H	  14.4991000000	  29.5974000000	  19.7960000000
H	  16.1574000000	  28.8135000000	  19.9420000000
H	  13.7600000000	  28.1077000000	  18.2006000000
H	  15.2995000000	  27.1917000000	  18.2351000000
H	  15.0969000000	  26.2550000000	  20.8846000000
H	  13.4015000000	  26.4360000000	  21.4060000000
O	  17.8979000000	  31.6321000000	  22.7195000000
O	  16.1834000000	  30.3592000000	  22.0265000000
C	  17.5109000000	  32.0264000000	  21.3946000000
C	  16.0542000000	  31.7076000000	  21.3889000000
C	  17.2871000000	  30.4029000000	  22.8760000000
H	  17.6585000000	  33.0827000000	  21.2190000000
H	  18.1393000000	  31.4105000000	  20.7495000000
H	  15.5267000000	  32.4521000000	  21.9916000000
H	  15.6352000000	  31.7276000000	  20.3911000000
H	  17.9426000000	  29.5281000000	  22.7638000000
H	  16.8924000000	  30.3170000000	  23.8773000000
