28

Li	  18.2088000000	  46.5312000000	  15.3063000000
O	  16.6220000000	  47.4491000000	  14.7329000000
O	  16.4689000000	  49.6407000000	  14.4595000000
C	  15.6006000000	  47.8682000000	  15.6441000000
C	  15.5997000000	  49.3573000000	  15.5299000000
C	  16.5071000000	  48.4280000000	  13.8084000000
H	  14.6689000000	  47.4708000000	  15.2494000000
H	  15.7982000000	  47.6321000000	  16.7042000000
H	  14.5984000000	  49.6724000000	  15.2736000000
H	  16.0017000000	  49.9172000000	  16.3758000000
H	  17.3515000000	  48.3748000000	  13.0837000000
H	  15.6695000000	  48.3340000000	  13.1267000000
S	  19.8059000000	  45.9472000000	   5.3423300000
S	  20.9896000000	  45.3518000000	   7.0031600000
S	  20.1793000000	  46.2589000000	   8.6796200000
S	  17.2069000000	  44.7093000000	  12.9199000000
S	  18.3697000000	  44.1968000000	  14.7074000000
S	  17.3666000000	  44.8606000000	  16.4534000000
S	  18.2559000000	  46.0516000000	  11.6873000000
S	  19.2444000000	  44.9748000000	  10.1441000000
S	  20.1270000000	  47.4648000000	  14.4080000000
S	  20.1511000000	  48.0895000000	  16.5157000000
S	  19.6922000000	  50.1391000000	  16.7075000000
S	  24.4470000000	  50.8532000000	  16.3579000000
S	  24.5100000000	  49.7039000000	  14.6214000000
S	  23.8582000000	  47.7510000000	  14.9393000000
S	  22.6965000000	  51.9879000000	  16.3386000000
S	  21.2694000000	  51.1960000000	  17.6792000000
