35

Li	   4.7785400000	  30.0630000000	   0.8163890000
O	   2.2335400000	  27.8480000000	  -1.6243876435
O	   3.4438900000	  29.1802000000	  -0.3213876435
C	   1.2616500000	  28.7819000000	  -1.0447876435
C	   2.0878100000	  29.5228000000	   0.0302123565
C	   3.3633700000	  27.9353000000	  -0.8037876435
H	   0.7508580000	  29.4100000000	  -1.8190876435
H	   0.4224792605	  28.2026000000	  -0.6330876435
H	   1.9453500000	  30.6067000000	   0.1638123565
H	   1.8447700000	  29.0188000000	   0.9532310000
H	   3.2421000000	  27.1917000000	   0.0001123565
H	   4.3219400000	  27.6070000000	  -1.2809876435
N	   7.4563900000	  29.3472000000	   4.2834100000
S	   6.0821000000	  28.7971000000	   3.8028500000
O	   5.6158600000	  29.3430000000	   2.5131100000
O	   5.7994300000	  27.4022000000	   4.1239700000
C	   4.9467700000	  29.5894000000	   4.9605700000
F	   5.0713100000	  30.9077000000	   5.0672900000
F	   5.0586600000	  29.1058000000	   6.2189200000
F	   3.7171400000	  29.3783000000	   4.5976000000
S	   8.5468100000	  30.0383000000	   3.3969000000
O	   8.1592700000	  30.7893000000	   2.2620400000
O	   9.7805000000	  29.3465000000	   3.2558500000
C	   9.0123100000	  31.4253000000	   4.5671200000
F	  10.1518000000	  31.9944000000	   4.2619500000
F	   8.0871300000	  32.3650000000	   4.6619900000
F	   9.1550500000	  30.9685000000	   5.7655600000
S	   6.3003000000	  30.4357000000	  -0.6572876435
S	   5.2515000000	  32.2465000000	  -0.1021876435
S	   4.9132900000	  32.2989000000	   1.9548500000
S	   2.5884200000	  33.0510000000	   5.9929700000
S	   0.9741620000	  32.8601000000	   7.3260500000
S	   0.3598792605	  34.6493000000	   8.2786900000
S	   1.9702900000	  33.1610000000	   3.9193600000
S	   2.9489700000	  31.6860000000	   2.6234700000
