54

Li	  15.8819000000	  32.6649000000	  51.9830000000
N	  16.3109000000	  30.2603000000	  55.2312000000
S	  15.5428000000	  30.6053000000	  56.5601000000
O	  15.8526000000	  31.8190000000	  57.2152000000
O	  14.1229000000	  30.3583000000	  56.4833000000
C	  16.1287000000	  29.2856000000	  57.7225000000
F	  15.6768000000	  28.0843000000	  57.3874000000
F	  15.7641000000	  29.5525000000	  58.9469000000
F	  17.4759000000	  29.2738000000	  57.7386000000
S	  17.4766000000	  31.0098000000	  54.5721000000
O	  18.3468000000	  31.5734000000	  55.5739000000
O	  17.1654000000	  31.8615000000	  53.4871000000
C	  18.4256000000	  29.6267000000	  53.8590000000
F	  19.5881000000	  30.0006000000	  53.2860000000
F	  18.8042000000	  28.7469000000	  54.7624000000
F	  17.6702000000	  28.9619000000	  53.0051000000
N	  13.9580000000	  35.6818000000	  53.9485000000
S	  14.1654000000	  34.1822000000	  54.3209000000
O	  14.2820000000	  33.3697000000	  53.1579000000
O	  15.1130000000	  33.9736000000	  55.4187000000
C	  12.5676000000	  33.6747000000	  55.0153000000
F	  12.6134000000	  32.3870000000	  55.4095000000
F	  11.4902000000	  33.7657000000	  54.2474000000
F	  12.2764000000	  34.3584000000	  56.1163000000
S	  13.6351000000	  36.3772000000	  52.5811000000
O	  13.2232000000	  35.5051000000	  51.4852000000
O	  14.4878000000	  37.5257000000	  52.4730000000
C	  12.0741000000	  37.1300000000	  53.0303000000
F	  11.6873000000	  37.9818000000	  52.0871000000
F	  11.0846000000	  36.2375000000	  53.0896000000
F	  12.1684000000	  37.6951000000	  54.1947000000
N	  15.5528000000	  36.0967000000	  48.7786000000
S	  16.3744000000	  37.3177000000	  48.1828000000
O	  16.9314000000	  38.1899000000	  49.1167000000
O	  17.2103000000	  36.8979000000	  47.0413000000
C	  14.9750000000	  38.2713000000	  47.4714000000
F	  14.1654000000	  37.5554000000	  46.6535000000
F	  15.3910000000	  39.3069000000	  46.8007000000
F	  14.2005000000	  38.7050000000	  48.4378000000
S	  15.9328000000	  34.5750000000	  48.8210000000
O	  15.8875000000	  33.8878000000	  50.0649000000
O	  16.9614000000	  34.1112000000	  47.9510000000
C	  14.4480000000	  33.7965000000	  47.9893000000
F	  14.5554000000	  32.4966000000	  47.8098000000
F	  13.3494000000	  33.9507000000	  48.6409000000
F	  14.3223000000	  34.3396000000	  46.8203000000
S	  17.6580000000	  39.1142000000	  52.0298000000
S	  17.8783000000	  37.4379000000	  53.1529000000
S	  17.3396000000	  35.6956000000	  52.1776000000
S	  18.7477000000	  31.3042000000	  50.2318000000
S	  16.8628000000	  30.8260000000	  49.4572000000
S	  15.5449000000	  30.5378000000	  51.0094000000
S	  19.2800000000	  33.3275000000	  50.1726000000
S	  18.9358000000	  34.2891000000	  52.0880000000
