49

Li	  54.1532000000	  49.6116000000	  57.6697000000
O	  55.1585000000	  50.9269000000	  56.9349000000
O	  56.8133000000	  51.7406000000	  55.6316000000
C	  54.5379000000	  51.5585000000	  55.8470000000
C	  55.6620000000	  51.9060000000	  54.8177000000
C	  56.4295000000	  51.5284000000	  57.0149000000
H	  53.6196000000	  50.9691000000	  55.5318000000
H	  54.1695000000	  52.4346000000	  56.3686000000
H	  55.8471000000	  51.2125000000	  54.0316000000
H	  55.5226000000	  52.9231000000	  54.4575000000
H	  56.4911000000	  52.5357000000	  57.4014000000
H	  57.1434000000	  50.9135000000	  57.5988000000
O	  54.1206000000	  48.2460000000	  56.3466000000
O	  55.2943000000	  47.7095000000	  58.1123000000
C	  55.4469000000	  48.0377000000	  55.8819000000
C	  56.1837000000	  47.4830000000	  57.0899000000
C	  54.0710000000	  47.4250000000	  57.4146000000
H	  55.4684000000	  47.2436000000	  55.1086000000
H	  56.0247000000	  48.8826000000	  55.4145000000
H	  56.3449000000	  46.4157000000	  56.9498000000
H	  57.1333000000	  47.8449000000	  57.2184000000
H	  53.1896000000	  47.6503000000	  58.1058000000
H	  53.9417000000	  46.3099000000	  57.2767000000
O	  54.7427000000	  49.3973000000	  61.8858676435
O	  54.1151000000	  49.9857000000	  59.8325376435
C	  53.3235000000	  49.5792000000	  61.9631576435
C	  53.0835000000	  50.4374000000	  60.7009976435
C	  54.8107000000	  49.0234000000	  60.5260976435
H	  52.8623000000	  48.6815000000	  61.9962576435
H	  53.0523000000	  50.1164000000	  62.9097976435
H	  52.1006000000	  50.1667000000	  60.3270076435
H	  53.2542000000	  51.5447000000	  60.8618876435
H	  55.8525000000	  49.0469000000	  60.2444976435
H	  54.4351000000	  48.0777000000	  60.2804376435
N	  49.6952000000	  50.1312000000	  58.5909000000
S	  48.7932000000	  49.5690000000	  59.6916576435
O	  47.4885000000	  49.1304000000	  59.2841196435
O	  49.4886000000	  48.7782000000	  60.6758176435
C	  48.3539000000	  51.0736000000	  60.6426476435
F	  47.6211000000	  51.9288000000	  59.9749976435
F	  49.5036000000	  51.7178000000	  61.0482476435
F	  47.6483000000	  50.7604000000	  61.6851176435
S	  50.7267000000	  49.2933000000	  57.6905000000
O	  50.6109000000	  47.8887000000	  57.7215000000
O	  52.1062000000	  49.8446000000	  57.6908000000
C	  50.2591000000	  49.6549000000	  56.0294000000
F	  51.0456000000	  48.9979000000	  55.1146000000
F	  49.0792000000	  49.3020000000	  55.6894000000
F	  50.3877000000	  50.9373000000	  55.7474000000
