39

Li	  38.0827000000	  33.6113000000	   6.5133300000
O	  33.8339000000	  33.2047000000	   5.9494900000
O	  36.0581000000	  33.6064000000	   6.4836100000
C	  33.8307000000	  33.5235000000	   7.2789600000
C	  35.2874000000	  34.0387000000	   7.5853900000
C	  35.1537000000	  33.4308000000	   5.4772000000
H	  33.1071000000	  34.4095000000	   7.3696600000
H	  33.3764000000	  32.6748000000	   7.9103000000
H	  35.3914000000	  35.1490000000	   7.6939700000
H	  35.6980000000	  33.6116000000	   8.4978600000
H	  35.6373000000	  32.5876000000	   5.0216000000
H	  35.0291000000	  34.3231000000	   4.8818600000
O	  40.4889000000	  36.3239000000	   5.1140700000
O	  38.7125000000	  35.1547000000	   5.7858000000
C	  40.0800000000	  35.6613000000	   3.9353600000
C	  38.6854000000	  35.2897000000	   4.3605800000
C	  39.8728000000	  35.7976000000	   6.2401300000
H	  40.0643000000	  36.3348000000	   3.1361200000
H	  40.7760000000	  34.8901000000	   3.6397600000
H	  38.0267000000	  36.1756000000	   4.1818300000
H	  38.4784000000	  34.3418000000	   3.8115000000
H	  40.4415000000	  35.0045000000	   6.6568600000
H	  39.7654000000	  36.5642000000	   6.9518000000
S	  49.5355000000	  31.2663000000	   8.5692000000
S	  48.1180000000	  30.6768000000	   7.1035400000
S	  46.1685000000	  30.5807000000	   7.8451500000
S	  41.7702000000	  32.8031000000	   5.5803300000
S	  40.4172000000	  31.7737000000	   4.3903600000
S	  38.4120000000	  31.7100000000	   5.2367900000
S	  42.9003000000	  31.5031000000	   6.8715400000
S	  44.9982000000	  31.8461000000	   6.6394500000
S	  38.6927000000	  33.3877000000	   8.6248400000
S	  38.2148000000	  31.3401000000	   8.8721400000
S	  36.2012000000	  30.9427000000	   9.5729600000
S	  32.5609000000	  28.1997000000	  10.0373000000
S	  31.5438000000	  26.4025000000	   9.4578200000
S	  29.4853000000	  26.5710000000	   8.9853000000
S	  34.6451000000	  28.0001000000	  10.2232000000
S	  35.6783000000	  29.1379000000	   8.6882800000
