50

Li	  17.6210000000	  34.2551000000	  50.0914000000
O	  19.4073000000	  33.8385000000	  50.4573000000
O	  21.3578000000	  33.3365000000	  49.5771000000
C	  20.2570000000	  34.9461000000	  50.7540000000
C	  21.4327000000	  34.7033000000	  49.8765000000
C	  20.3722000000	  32.7967000000	  50.3948000000
H	  19.7013000000	  35.8356000000	  50.5115000000
H	  20.6101000000	  34.8538000000	  51.7673000000
H	  21.4979000000	  35.3395000000	  49.0257000000
H	  22.2838000000	  34.8230000000	  50.5613000000
H	  20.6716000000	  32.6570000000	  51.4039000000
H	  19.9105000000	  31.8870000000	  50.0965000000
N	  13.4461000000	  36.1654000000	  49.8511000000
S	  14.5303000000	  35.8212000000	  50.9534000000
O	  14.0663000000	  35.1152000000	  52.1560000000
O	  15.7972000000	  35.3493000000	  50.3942000000
C	  14.8426000000	  37.5195000000	  51.4898000000
F	  15.1827000000	  38.3315000000	  50.5162000000
F	  15.8400000000	  37.6253000000	  52.3741000000
F	  13.7540000000	  38.0053000000	  52.1025000000
S	  13.4401000000	  35.8932000000	  48.3276000000
O	  12.2929000000	  35.1526000000	  47.8083000000
O	  14.7214000000	  35.5040000000	  47.8169000000
C	  13.1590000000	  37.6326000000	  47.7972000000
F	  14.1653000000	  38.4377000000	  47.9374000000
F	  12.8621000000	  37.6565000000	  46.5154000000
F	  12.1510000000	  38.1444000000	  48.4166000000
N	  16.7432000000	  33.3229000000	  53.6953000000
S	  16.2226000000	  32.3377000000	  52.5917000000
O	  14.8451000000	  31.8062000000	  52.8232000000
O	  16.5934000000	  32.7041000000	  51.2512000000
C	  17.2696000000	  30.7995000000	  52.8256000000
F	  16.8867000000	  29.7921000000	  52.0154000000
F	  17.3518000000	  30.3755000000	  54.1139000000
F	  18.5199000000	  31.0450000000	  52.4227000000
S	  17.3829000000	  34.6916000000	  53.5832000000
O	  16.6901000000	  35.5951000000	  54.3922000000
O	  17.7377000000	  35.1189000000	  52.2685000000
C	  18.9260000000	  34.3292000000	  54.4043000000
F	  19.7308000000	  35.4406000000	  54.3515000000
F	  18.6495000000	  34.0897000000	  55.7124000000
F	  19.6891000000	  33.3381000000	  53.8809000000
S	  17.3298000000	  33.5259000000	  48.0121000000
S	  18.6358000000	  35.0846000000	  47.3548000000
S	  17.8491000000	  36.9150000000	  47.9773000000
S	  20.3150000000	  39.8462000000	  44.6783000000
S	  19.6302000000	  39.5733000000	  42.7414000000
S	  18.9929000000	  41.4348000000	  41.9934000000
S	  18.7384000000	  39.8555000000	  46.1264000000
S	  19.1756000000	  38.5775000000	  47.6918000000
