68

Li	  45.3364000000	  30.1925000000	  24.0314000000
O	  47.1467000000	  30.0642000000	  24.2983000000
O	  48.2955000000	  28.3285000000	  23.7893000000
C	  48.1943000000	  30.1121000000	  25.2928000000
C	  48.8880000000	  28.8059000000	  24.9484000000
C	  47.6982000000	  29.4129000000	  23.2755000000
H	  48.7515000000	  30.9858000000	  25.0453000000
H	  47.7128000000	  30.1618000000	  26.2569000000
H	  49.9607000000	  28.8346000000	  24.8249000000
H	  48.6404000000	  28.1221000000	  25.7127000000
H	  46.8675000000	  29.0806000000	  22.6197000000
H	  48.3753000000	  30.0092000000	  22.6619000000
O	  44.0914000000	  31.1819000000	  25.1392000000
O	  43.2806000000	  33.3194000000	  25.6094000000
C	  44.2840000000	  31.4963000000	  26.5125000000
C	  43.2722000000	  32.5436000000	  26.7878000000
C	  43.2933000000	  32.2857000000	  24.6462000000
H	  43.8621000000	  30.6086000000	  27.1008000000
H	  45.3247000000	  31.8444000000	  26.6567000000
H	  42.3909000000	  31.9928000000	  27.1808000000
H	  43.5727000000	  33.1324000000	  27.6255000000
H	  43.5943000000	  32.6119000000	  23.6397000000
H	  42.2188000000	  31.9798000000	  24.5895000000
N	  46.0383000000	  26.5678000000	  25.0787000000
S	  46.5375000000	  25.4139000000	  24.1322000000
O	  45.5337000000	  24.6870000000	  23.4076000000
O	  47.7085000000	  25.7311000000	  23.3277000000
C	  47.3306000000	  24.3497000000	  25.3695000000
F	  48.2815000000	  25.0649000000	  26.1157000000
F	  47.9942000000	  23.2960000000	  24.8882000000
F	  46.5499000000	  23.8858000000	  26.3504000000
S	  44.5489000000	  27.0168000000	  25.1878000000
O	  43.6034000000	  26.2711000000	  24.4213000000
O	  44.5413000000	  28.4703000000	  25.0758000000
C	  44.1211000000	  26.6500000000	  26.9164000000
F	  43.5185000000	  25.4335000000	  26.9763000000
F	  45.2298000000	  26.5617000000	  27.6225000000
F	  43.2909000000	  27.4858000000	  27.5286000000
N	  46.7370000000	  34.2752000000	  22.1266000000
S	  47.7337000000	  34.5311000000	  23.3370000000
O	  47.3400000000	  35.5423000000	  24.2683000000
O	  48.2509000000	  33.3410000000	  23.8574000000
C	  49.0975000000	  35.4322000000	  22.5072000000
F	  50.0267000000	  35.8531000000	  23.3605000000
F	  48.6318000000	  36.4629000000	  21.8564000000
F	  49.7630000000	  34.6150000000	  21.7178000000
S	  46.0239000000	  32.8980000000	  21.7056000000
O	  44.8748000000	  33.0784000000	  20.8420000000
O	  45.8474000000	  31.8724000000	  22.7289000000
C	  47.1900000000	  32.2202000000	  20.4781000000
F	  48.4052000000	  31.9886000000	  20.9227000000
F	  46.7618000000	  31.0707000000	  19.9147000000
F	  47.3580000000	  33.0345000000	  19.4423000000
N	  43.2199000000	  27.9597000000	  20.7779000000
S	  42.8388000000	  29.0747000000	  21.8016000000
O	  41.6250000000	  28.8213000000	  22.5753000000
O	  43.9244000000	  29.6348000000	  22.5300000000
C	  42.2468000000	  30.3991000000	  20.7498000000
F	  41.9886000000	  31.5038000000	  21.3837000000
F	  41.0963000000	  30.0520000000	  20.1431000000
F	  43.0792000000	  30.7864000000	  19.8238000000
S	  44.1955000000	  26.7210000000	  20.8719000000
O	  43.5610000000	  25.6279000000	  21.5236000000
O	  45.5706000000	  27.0802000000	  21.1921000000
C	  44.2400000000	  26.2346000000	  19.1089000000
F	  43.1288000000	  25.7615000000	  18.6181000000
F	  44.5823000000	  27.1369000000	  18.2007000000
F	  45.1192000000	  25.2564000000	  18.9726000000
