42

Li	   2.5716900000	  46.4545000000	  25.7001000000
O	   2.8896400000	  50.1928000000	  26.7182000000
O	   2.8707100000	  47.9611000000	  26.6791000000
C	   1.6182500000	  49.8493000000	  27.2865000000
C	   1.9864100000	  48.3668000000	  27.7521000000
C	   3.6571100000	  49.0410000000	  26.4323000000
H	   1.2703600000	  50.6593000000	  27.9575000000
H	   0.9491560000	  49.8831000000	  26.4094000000
H	   2.4360000000	  48.3499000000	  28.7071000000
H	   1.1197600000	  47.7493000000	  27.9489000000
H	   4.1357900000	  48.9291000000	  25.4591000000
H	   4.5250300000	  49.1373000000	  27.0386000000
N	   5.5282500000	  44.9869000000	  27.6434000000
S	   4.0422100000	  44.3979000000	  27.8806000000
O	   2.9569000000	  45.0851000000	  27.2662000000
O	   3.9536500000	  42.9811000000	  27.8370000000
C	   3.7834800000	  44.7927000000	  29.5623000000
F	   4.7590600000	  44.1975000000	  30.3154000000
F	   2.6117500000	  44.4223000000	  29.9980000000
F	   3.8930100000	  46.0796000000	  29.6772000000
S	   5.9405400000	  46.1704000000	  26.7257000000
O	   6.4109200000	  47.2765000000	  27.5062000000
O	   5.0074900000	  46.3972000000	  25.6471000000
C	   7.4675500000	  45.5876000000	  25.8853000000
F	   8.0312200000	  46.4419000000	  25.0796000000
F	   8.2570000000	  45.2218000000	  26.8170000000
F	   7.2456400000	  44.4312000000	  25.2089000000
N	   0.4291490686	  47.5618000000	  22.8646000000
S	   1.9675400000	  47.6990000000	  22.5789000000
O	   2.9096200000	  47.3578000000	  23.7096000000
O	   2.2874200000	  47.2428000000	  21.2304000000
C	   2.2038100000	  49.5178000000	  22.4286000000
F	   1.3656300000	  50.0148000000	  21.5342000000
F	   3.4672800000	  49.8735000000	  22.1459000000
F	   1.9478600000	  50.2098000000	  23.5292000000
S	  -0.2501509314	  47.0153000000	  24.1155000000
O	  -1.3909509314	  47.8350000000	  24.4573000000
O	   0.6161490686	  46.4666000000	  25.1124000000
C	  -1.0607509314	  45.4573000000	  23.5138000000
F	  -1.7404509314	  45.6818000000	  22.3882000000
F	  -0.1230509314	  44.5575000000	  23.2156000000
F	  -1.8693509314	  44.9194000000	  24.3968000000
