35

Li	  41.3574000000	  15.6465000000	  51.6273000000
O	  41.7758000000	  14.0245000000	  50.8512000000
O	  42.5194000000	  13.4336000000	  48.8493000000
C	  43.1264000000	  13.8279000000	  51.0302000000
C	  43.6361000000	  13.7467000000	  49.6288000000
C	  41.4260000000	  13.3847000000	  49.6213000000
H	  43.5615000000	  14.5810000000	  51.6947000000
H	  43.4200000000	  12.9003000000	  51.5301000000
H	  44.0675000000	  14.6795000000	  49.3462000000
H	  44.4686000000	  13.0648000000	  49.7098000000
H	  41.2838000000	  12.3563000000	  49.9634000000
H	  40.4966000000	  13.6564000000	  49.1242000000
N	  38.2623000000	  14.9364000000	  53.1017000000
S	  39.4872000000	  14.3227000000	  53.8821000000
O	  40.7871000000	  14.5933000000	  53.2577000000
O	  39.3165000000	  14.5956000000	  55.2762000000
C	  39.1503000000	  12.5845000000	  53.7217000000
F	  39.2603000000	  12.3276000000	  52.4288000000
F	  37.9414000000	  12.2480000000	  54.1568000000
F	  39.9812000000	  11.7937000000	  54.3525000000
S	  38.3869000000	  16.0324000000	  51.9102000000
O	  39.5148000000	  15.7283000000	  51.0932000000
O	  38.2076000000	  17.4204000000	  52.2879000000
C	  36.9722000000	  15.6872000000	  50.8342000000
F	  35.8392000000	  15.7060000000	  51.5529000000
F	  36.7609000000	  16.6471000000	  49.9749000000
F	  37.0586000000	  14.4986000000	  50.2153000000
S	  47.9216000000	  21.0733000000	  59.2971633399
S	  47.2432000000	  18.9899000000	  59.4999423399
S	  45.5639000000	  18.6078000000	  58.1905000000
S	  44.1731000000	  16.3934000000	  53.7251000000
S	  42.5977000000	  17.5942000000	  52.9702000000
S	  42.3731000000	  17.2470000000	  50.9000000000
S	  45.5988000000	  17.4713000000	  54.8135000000
S	  45.6388000000	  17.0076000000	  56.9633000000
