98

Li	  21.0376000000	  42.0447000000	  44.3546000000
O	  19.1486000000	  47.2300000000	  41.9065000000
O	  19.1353000000	  42.1557000000	  43.7716000000
O	  18.1222000000	  44.7350000000	  43.1568000000
C	  19.0376000000	  48.2597000000	  39.6516000000
C	  18.6747000000	  39.9714000000	  44.9039000000
C	  19.0924000000	  48.4935000000	  41.1693000000
C	  18.6842000000	  40.8158000000	  43.5608000000
C	  20.1151000000	  47.2741000000	  39.0835000000
C	  18.4555000000	  38.5136000000	  44.5357000000
C	  18.0242000000	  47.2082000000	  42.7373000000
C	  19.2903000000	  42.8087000000	  42.5162000000
C	  18.1578000000	  46.0429000000	  43.7465000000
C	  19.3522000000	  44.3547000000	  42.6428000000
C	  21.5501000000	  47.8303000000	  39.3537000000
C	  18.0256000000	  37.6245000000	  45.7434000000
H	  18.0488000000	  47.8738000000	  39.5478000000
H	  19.0139000000	  49.1366000000	  39.1206000000
H	  19.5175000000	  40.1519000000	  45.5526000000
H	  17.7654000000	  40.3983000000	  45.3751000000
H	  18.3347000000	  49.2151000000	  41.5001000000
H	  19.9559000000	  49.2003000000	  41.3801000000
H	  17.6694000000	  40.7138000000	  43.0503000000
H	  19.3759000000	  40.3929000000	  42.7707000000
H	  19.9159000000	  46.3306000000	  39.5594000000
H	  19.9677000000	  47.0731000000	  38.0053000000
H	  17.8359000000	  38.3843000000	  43.6504000000
H	  19.4210000000	  38.1678000000	  44.1324000000
H	  17.8691000000	  48.0746000000	  43.3151000000
H	  17.1752000000	  46.9419000000	  42.1352000000
H	  18.3790000000	  42.5687000000	  41.9939000000
H	  20.1059000000	  42.3827000000	  41.8365000000
H	  19.0547000000	  46.0885000000	  44.4149000000
H	  17.3513000000	  46.0946000000	  44.4634000000
H	  19.4565000000	  44.7854000000	  41.6028000000
H	  20.2373000000	  44.6151000000	  43.2370000000
H	  21.9145000000	  47.6125000000	  40.3432000000
H	  22.2982000000	  47.5726000000	  38.5887000000
H	  21.5993000000	  48.9054000000	  39.3860000000
H	  17.0196000000	  37.6086000000	  45.9885000000
H	  18.3903000000	  36.6407000000	  45.6188000000
H	  18.4808000000	  38.0941000000	  46.6243000000
O	  21.1966000000	  42.7288000000	  46.1058000000
O	  21.7365000000	  39.3106000000	  42.0829000000
O	  22.3214000000	  40.7822000000	  44.6921000000
C	  20.9107000000	  44.8027000000	  47.4809000000
C	  22.3052000000	  38.2354000000	  40.0641000000
C	  20.7763000000	  44.0271000000	  46.1471000000
C	  21.8198000000	  39.5120000000	  40.7048000000
C	  19.8702000000	  44.3824000000	  48.4825000000
C	  21.9878000000	  38.0445000000	  38.6076000000
C	  22.5203000000	  42.3710000000	  46.5454000000
C	  22.9297000000	  39.3738000000	  42.8180000000
C	  22.6281000000	  40.9373000000	  46.0774000000
C	  22.6545000000	  39.5038000000	  44.3258000000
C	  19.9069000000	  44.9442000000	  49.8962000000
C	  20.5660000000	  37.5449000000	  38.2674000000
H	  21.9256000000	  44.5436000000	  47.9000000000
H	  20.9718000000	  45.8488000000	  47.2926000000
H	  23.3523000000	  38.0280000000	  40.2404000000
H	  21.8262000000	  37.5188000000	  40.7350000000
H	  21.3204000000	  44.6027000000	  45.4696000000
H	  19.8318000000	  44.1761000000	  45.7631000000
H	  20.8513000000	  39.6316000000	  40.3495000000
H	  22.4035000000	  40.3717000000	  40.4611000000
H	  18.8678000000	  44.5775000000	  48.0593000000
H	  19.8796000000	  43.2720000000	  48.5384000000
H	  22.2129000000	  39.0747000000	  38.2252000000
H	  22.7795000000	  37.4211000000	  38.1780000000
H	  23.2817000000	  43.0856000000	  46.1651000000
H	  22.4736000000	  42.3706000000	  47.6542000000
H	  23.5207000000	  40.1767000000	  42.4391000000
H	  23.5185000000	  38.4158000000	  42.6833000000
H	  23.7111000000	  40.7925000000	  46.1454000000
H	  21.9795000000	  40.2483000000	  46.5414000000
H	  23.4071000000	  39.0169000000	  44.9444000000
H	  21.7615000000	  38.9996000000	  44.5298000000
H	  19.2373000000	  44.3878000000	  50.5085000000
H	  20.8478000000	  44.8641000000	  50.3467000000
H	  19.6976000000	  46.0419000000	  49.9077000000
H	  20.4746000000	  36.4547000000	  38.4297000000
H	  19.8323000000	  38.1136000000	  38.9297000000
H	  20.1896000000	  37.7444000000	  37.2439000000
N	  23.5555000000	  45.5642000000	  43.2595000000
S	  23.8767000000	  46.6584000000	  44.2779000000
O	  23.7889000000	  46.2920000000	  45.6950000000
O	  25.0157000000	  47.4113000000	  43.8774000000
C	  22.5085000000	  47.7903000000	  44.0559000000
F	  21.3612000000	  47.3220000000	  44.5019000000
F	  22.1749000000	  48.0076000000	  42.8088000000
F	  22.7339000000	  48.9299000000	  44.6160000000
S	  23.9402000000	  44.0109000000	  43.2725000000
O	  22.8015000000	  43.1231000000	  43.3526000000
O	  25.0420000000	  43.6534000000	  44.0819000000
C	  24.6591000000	  43.7808000000	  41.6198000000
F	  25.3532000000	  44.8024000000	  41.3686000000
F	  25.4408000000	  42.7060000000	  41.5016000000
F	  23.7547000000	  43.7039000000	  40.6229000000
