53

Li	   4.6882300000	  43.0102000000	  26.0493000000
O	   2.5125800000	  44.8985000000	  28.9228000000
O	   4.1167100000	  44.0541000000	  27.5237000000
C	   2.7175100000	  45.8402000000	  27.8597000000
C	   4.1195500000	  45.4564000000	  27.2428000000
C	   3.0357700000	  43.7224000000	  28.3874000000
H	   1.9277500000	  45.7137000000	  27.1682000000
H	   2.7014400000	  46.8858000000	  28.2179000000
H	   4.1638000000	  45.6075000000	  26.1509000000
H	   4.9495200000	  45.9023000000	  27.7841000000
H	   3.5230900000	  43.2334000000	  29.2713000000
H	   2.3305900000	  43.0910000000	  27.8652000000
O	   2.7373600000	  39.2182000000	  25.4265000000
O	   3.9358500000	  41.1246000000	  26.1031000000
C	   2.7641600000	  39.1699000000	  26.8569000000
C	   3.7082400000	  40.3018000000	  27.2993000000
C	   3.7220700000	  40.1960000000	  25.0416000000
H	   1.8066000000	  39.2484000000	  27.2335000000
H	   3.3141900000	  38.2332000000	  27.1771000000
H	   3.5169500000	  40.7862000000	  28.2189000000
H	   4.6852800000	  39.8411000000	  27.3927000000
H	   4.5066600000	  39.5256000000	  24.9379000000
H	   3.4334000000	  40.5731000000	  24.0895000000
N	   8.4175400000	  42.5071000000	  24.6666000000
S	   8.0017900000	  43.3603000000	  25.8986000000
O	   6.7242600000	  43.0146000000	  26.4762000000
O	   9.1484400000	  43.6324000000	  26.7435000000
C	   7.6214400000	  45.0269000000	  25.0806000000
F	   8.7283400000	  45.4401000000	  24.4612000000
F	   7.1822500000	  45.9187000000	  25.9434000000
F	   6.6477100000	  44.8933000000	  24.1726000000
S	   7.8089900000	  41.1053000000	  24.2990000000
O	   7.1275200000	  41.1379000000	  23.0279000000
O	   7.2863200000	  40.4052000000	  25.4582000000
C	   9.2966200000	  40.1272000000	  23.8629000000
F	   9.9311100000	  40.5243000000	  22.7645000000
F	  10.1250000000	  40.0938000000	  24.8668000000
F	   8.9641300000	  38.8475000000	  23.6134000000
N	   1.6163100000	  43.7238000000	  23.1532000000
S	   3.2229400000	  43.6952000000	  23.2104000000
O	   3.7748000000	  43.4977000000	  24.4977000000
O	   3.7540700000	  43.0291000000	  22.0855000000
C	   3.3803600000	  45.4859000000	  22.8445000000
F	   4.6211300000	  45.7355000000	  22.5922000000
F	   3.0779800000	  46.3042000000	  23.8394000000
F	   2.6947400000	  45.8508000000	  21.7390000000
S	   0.5677490686	  43.5105000000	  24.2899000000
O	  -0.5252509314	  44.4446000000	  24.1880000000
O	   1.2223600000	  43.2135000000	  25.5426000000
C	  -0.0414509314	  41.8884000000	  23.7978000000
F	  -0.5632509314	  41.8705000000	  22.5691000000
F	   0.9591340000	  40.9436000000	  23.7850000000
F	  -1.0817509314	  41.4252000000	  24.5089000000
