45

Li	  47.4042000000	  22.6575000000	  56.3712000000
O	  46.6682000000	  18.8075000000	  57.7712000000
O	  47.4035000000	  20.7685000000	  56.9540000000
C	  47.4000000000	  18.4932000000	  56.5641000000
C	  48.3325000000	  19.7436000000	  56.6113000000
C	  46.6606000000	  20.1505000000	  57.9591000000
H	  47.9665000000	  17.5929000000	  56.4709000000
H	  46.7977000000	  18.4557000000	  55.6610000000
H	  49.1246000000	  19.4677000000	  57.3424000000
H	  48.7925000000	  19.9014000000	  55.6038000000
H	  45.6792000000	  20.4790000000	  58.0450000000
H	  47.1513000000	  20.3212000000	  58.9300000000
O	  49.2006000000	  23.1553000000	  57.0224000000
O	  51.1854000000	  23.2867000000	  58.2552000000
C	  49.9866000000	  24.2837000000	  56.6264000000
C	  50.7939000000	  24.5473000000	  57.9267000000
C	  49.9094000000	  22.6275000000	  58.0849000000
H	  50.7213000000	  23.9587000000	  55.9386000000
H	  49.4714000000	  25.1264000000	  56.1825000000
H	  51.6766000000	  25.0838000000	  57.6894000000
H	  50.2897000000	  25.0128000000	  58.7054000000
H	  49.3127000000	  22.6735000000	  59.0214000000
H	  50.1391000000	  21.5950000000	  57.9763000000
O	  46.5671000000	  23.8085000000	  57.7930000000
O	  47.4784000000	  25.2734000000	  59.1285000000
C	  45.9762000000	  23.5326000000	  59.0661000000
C	  46.6746000000	  24.4541000000	  60.0581123399
C	  46.8741000000	  25.1092000000	  57.8860000000
H	  44.9015000000	  23.7608000000	  59.0310000000
H	  46.2533000000	  22.4571000000	  59.2121913399
H	  46.0258000000	  25.0172000000	  60.6321723399
H	  47.3064000000	  23.8967000000	  60.7429323399
H	  47.4625000000	  25.5497000000	  57.0265000000
H	  45.8786000000	  25.6132000000	  57.9394000000
O	  47.0291000000	  22.6477000000	  54.4288000000
O	  46.7528000000	  24.7991000000	  53.8747000000
C	  48.1117000000	  22.9463000000	  53.5594000000
C	  47.9540000000	  24.4042000000	  53.2088000000
C	  46.0758000000	  23.6076000000	  54.1067000000
H	  49.0397000000	  22.6252000000	  54.0220000000
H	  47.9621000000	  22.3228000000	  52.6800000000
H	  48.7367000000	  25.0489000000	  53.6115000000
H	  47.9052000000	  24.5318000000	  52.0987000000
H	  45.6556000000	  23.2856000000	  53.1822000000
H	  45.3524000000	  23.4809000000	  54.9346000000
