31

Li	  57.1536000000	   1.0483900000	   4.5779500000
O	  53.6806000000	  -0.4900952978	   2.8381400000
O	  55.8053000000	   0.3444047022	   3.3372300000
C	  53.9506000000	   0.4515047022	   1.8203100000
C	  55.5192000000	   0.7592047022	   2.0513200000
C	  54.8812000000	  -0.7268952978	   3.5402000000
H	  53.7929000000	  -0.0429952978	   0.8901810000
H	  53.1480000000	   1.2612100000	   2.0311200000
H	  56.0742000000	   0.1307047022	   1.4053800000
H	  55.8040000000	   1.7554200000	   1.9079000000
H	  54.6645000000	  -0.8668952978	   4.6222100000
H	  55.1723000000	  -1.7233952978	   3.0787800000
O	  60.2684909314	  -1.5451952978	   5.2230500000
O	  58.9182000000	  -0.0331952978	   4.2584600000
C	  60.3022409314	  -1.7611952978	   3.7836300000
C	  58.9421000000	  -1.1731952978	   3.4279800000
C	  59.5210409314	  -0.4258952978	   5.4934300000
H	  61.1102409314	  -1.1508952978	   3.3346200000
H	  60.5218109314	  -2.8039952978	   3.5198400000
H	  58.7597000000	  -0.8049952978	   2.4022400000
H	  58.0307000000	  -1.7733952978	   3.7476800000
H	  58.7929000000	  -0.7570952978	   6.3117800000
H	  60.1885109314	   0.3525047022	   5.7590500000
S	  56.5518000000	   0.6752047022	   6.6045500000
S	  57.0035000000	   0.2294047022	   8.6090000000
S	  56.5442000000	  -1.7402952978	   9.2113200000
S	  54.5864000000	  -5.4390952978	  11.2320000000
S	  56.4621000000	  -6.3137952978	  10.7583000000
S	  56.6567000000	  -8.4017952978	  11.0173000000
S	  54.0562000000	  -3.9633952978	   9.8027500000
S	  54.6484000000	  -2.0268952978	  10.1898000000
