46

Li	  43.1100000000	  48.1719000000	  21.6011000000
O	  46.4411000000	  45.7930000000	  22.3784000000
O	  44.4328000000	  46.8379000000	  22.0165000000
C	  45.3890000000	  44.8584000000	  22.4605000000
C	  44.3020000000	  45.5169000000	  21.6382000000
C	  45.7776000000	  47.0550000000	  22.5238000000
H	  45.6114000000	  43.8287000000	  22.1913000000
H	  45.1188000000	  44.8971000000	  23.4961000000
H	  44.6102000000	  45.3155000000	  20.6621000000
H	  43.3458000000	  45.0640000000	  21.8492000000
H	  45.8873000000	  47.4610000000	  23.5371000000
H	  46.2103000000	  47.8298000000	  21.8169000000
O	  40.9363000000	  48.7056000000	  18.3993000000
O	  41.6989000000	  47.5382000000	  20.2260000000
C	  41.6991000000	  47.6076000000	  17.9313000000
C	  41.6361000000	  46.6812000000	  19.1384000000
C	  40.9555000000	  48.6369000000	  19.7440000000
H	  41.2265000000	  47.1413000000	  17.1340000000
H	  42.6957000000	  47.8144000000	  17.6672000000
H	  40.6129000000	  46.2426000000	  19.0852000000
H	  42.3348000000	  45.8987000000	  19.1763000000
H	  41.2570000000	  49.5876000000	  20.2099000000
H	  39.8636000000	  48.3253000000	  19.8798000000
N	  42.9910000000	  47.1414000000	  25.8868000000
S	  42.0432000000	  46.6602000000	  24.7587000000
O	  42.0265000000	  47.5460000000	  23.6091000000
O	  42.0102000000	  45.2431000000	  24.5493000000
C	  40.4052000000	  47.0548000000	  25.5526000000
F	  40.2075000000	  46.3952000000	  26.6875000000
F	  39.4744000000	  46.6326000000	  24.7016000000
F	  40.1549000000	  48.3433000000	  25.6821000000
S	  44.4366000000	  46.6355000000	  26.3207000000
O	  45.4510000000	  47.6610000000	  26.3623000000
O	  44.8077000000	  45.3259000000	  25.7514000000
C	  44.0838000000	  46.2587000000	  28.1802000000
F	  45.2321000000	  46.2259000000	  28.8945000000
F	  43.3579000000	  47.2234000000	  28.7389000000
F	  43.5120000000	  45.1165000000	  28.3739000000
S	  51.4923000000	  52.2714000000	  13.4672000000
S	  50.1638000000	  52.7691000000	  15.0667000000
S	  49.4286000000	  51.0981000000	  16.1545000000
S	  46.6988000000	  50.7296000000	  20.4354000000
S	  44.9019000000	  49.7050000000	  20.1384000000
S	  43.4716000000	  50.2594000000	  21.7533000000
S	  48.2410000000	  49.9574000000	  19.2320000000
S	  49.1690000000	  51.5292000000	  18.1772000000
