39

Li	  44.0501000000	  31.0779000000	  42.0332000000
O	  46.0876000000	  34.2533000000	  40.3191000000
O	  45.2308000000	  32.3332000000	  41.1933000000
C	  46.4512000000	  33.2708000000	  39.3938000000
C	  46.2724000000	  31.9994000000	  40.2474000000
C	  45.4111000000	  33.7076000000	  41.3843000000
H	  45.5800000000	  33.4050000000	  38.7209000000
H	  47.4782000000	  33.3157000000	  38.8708000000
H	  46.2779000000	  31.0171000000	  39.7149000000
H	  47.1129000000	  31.8774000000	  40.9146000000
H	  46.2099000000	  33.8561000000	  42.1955000000
H	  44.4937000000	  34.2497000000	  41.4588000000
O	  46.1886000000	  32.8228000000	  44.9697000000
O	  44.8433000000	  31.4951000000	  43.7502000000
C	  47.0004000000	  31.9502000000	  44.2167000000
C	  46.0596000000	  30.7847000000	  43.9322000000
C	  44.8505000000	  32.4826000000	  44.7830000000
H	  47.3098000000	  32.4368000000	  43.2929000000
H	  47.9024000000	  31.6507000000	  44.7717000000
H	  46.4070000000	  30.1277000000	  43.0663000000
H	  45.9857000000	  30.1069000000	  44.8019000000
H	  44.6283000000	  32.0370000000	  45.8166000000
H	  44.1537000000	  33.3491000000	  44.8325000000
S	  44.9828000000	  29.6738000000	  30.7754000000
S	  45.7046000000	  30.1862000000	  32.7484000000
S	  44.4215000000	  31.6671000000	  33.5503000000
S	  44.4751000000	  29.6970000000	  37.8838000000
S	  43.2976000000	  28.8982000000	  39.4979000000
S	  44.1832000000	  29.0688000000	  41.4564000000
S	  43.7049000000	  31.3728000000	  36.9376000000
S	  43.0621000000	  30.8701000000	  34.9280000000
S	  42.2151000000	  32.3590000000	  41.4668000000
S	  41.7292000000	  33.9636000000	  42.9151000000
S	  40.8742000000	  35.6740000000	  42.0433000000
S	  38.4152000000	  39.2617000000	  40.9114000000
S	  40.2571000000	  39.8760000000	  39.8454000000
S	  40.8497000000	  38.8303000000	  37.9932000000
S	  38.7206000000	  38.3034000000	  42.7706000000
S	  38.9095000000	  36.1987000000	  42.5913000000
