65

Li	  37.5014000000	  49.8710000000	  32.3173000000
O	  34.1871000000	  49.1430000000	  31.0846000000
O	  38.4731000000	  49.6508000000	  33.8602000000
O	  36.2465000000	  48.4825000000	  32.8915000000
C	  32.9435000000	  51.0448000000	  30.5765000000
C	  40.4855000000	  51.0479000000	  33.4028000000
C	  34.1906000000	  50.2200000000	  30.1760000000
C	  39.2821000000	  50.7297000000	  34.3863000000
C	  32.8451000000	  52.3639000000	  29.8721000000
C	  41.0450000000	  52.4452000000	  33.5062000000
C	  35.1242000000	  48.0884000000	  30.8201000000
C	  37.4697000000	  49.2986000000	  34.8053000000
C	  35.5740000000	  47.4708000000	  32.1951000000
C	  36.6472000000	  48.1386000000	  34.2455000000
C	  31.4432000000	  52.9800000000	  30.0181000000
C	  42.3334000000	  52.4550000000	  32.5459000000
H	  32.0115000000	  50.5245000000	  30.5095000000
H	  32.9770000000	  51.3038000000	  31.6822000000
H	  41.3359000000	  50.3971000000	  33.7084000000
H	  40.1749000000	  50.7980000000	  32.3479000000
H	  35.1583000000	  50.7415000000	  30.2642000000
H	  34.2694000000	  49.9196000000	  29.1437000000
H	  38.6383000000	  51.5464000000	  34.6555000000
H	  39.7622000000	  50.3873000000	  35.2588000000
H	  33.6477000000	  53.0213000000	  30.3414000000
H	  33.0959000000	  52.1539000000	  28.8238000000
H	  40.3028000000	  53.1491000000	  33.1664000000
H	  41.2991000000	  52.8045000000	  34.5271000000
H	  34.7318000000	  47.3484000000	  30.1668000000
H	  36.0011000000	  48.4677000000	  30.2886000000
H	  36.7776000000	  50.1708000000	  34.8634000000
H	  37.8126000000	  49.0653000000	  35.7497000000
H	  34.6645000000	  47.1756000000	  32.7358000000
H	  36.1658000000	  46.5793000000	  31.9878000000
H	  35.8413000000	  47.8801000000	  34.9774000000
H	  37.2777000000	  47.2190000000	  34.2222000000
H	  30.7188000000	  52.1550000000	  29.7892000000
H	  31.3743000000	  53.3083000000	  31.0283000000
H	  31.2408000000	  53.9042000000	  29.3271000000
H	  42.1821000000	  52.3935000000	  31.4788000000
H	  42.9185000000	  53.3142000000	  32.7738000000
H	  43.0172000000	  51.6356000000	  32.6642000000
N	  39.2022000000	  47.1326000000	  28.9036000000
S	  39.3481000000	  47.5275000000	  30.4069000000
O	  38.5721000000	  48.6805000000	  30.8297000000
O	  39.4636000000	  46.3906000000	  31.2655000000
C	  41.0031000000	  48.1912000000	  30.5140000000
F	  41.8393000000	  47.3447000000	  30.1026000000
F	  41.4069000000	  48.6338000000	  31.7172000000
F	  41.1581000000	  49.1941000000	  29.6609000000
S	  37.9683000000	  46.3620000000	  28.1894000000
O	  37.6957000000	  46.8745000000	  26.8828000000
O	  36.8753000000	  46.0303000000	  29.0142000000
C	  38.8252000000	  44.7901000000	  27.8589000000
F	  37.9102000000	  43.8666000000	  27.5604000000
F	  39.6612000000	  44.9495000000	  26.8732000000
F	  39.5152000000	  44.2819000000	  28.8639000000
S	  34.3413000000	  49.2241000000	  39.3953000000
S	  34.7628000000	  50.7688000000	  37.9015000000
S	  36.5690000000	  51.8659000000	  37.8514000000
S	  36.1168000000	  54.2666000000	  33.4440000000
S	  36.0051000000	  52.2897000000	  32.6621000000
S	  37.4263000000	  51.7982000000	  31.3050000000
S	  37.1620000000	  54.4316000000	  35.2464000000
S	  36.0570000000	  53.8027000000	  36.9808000000
