34

Li	  20.7101000000	  18.2174000000	  48.6186000000
O	  22.0390000000	  15.4954000000	  50.9828000000
O	  21.6757000000	  17.4717000000	  49.8803000000
C	  23.1839000000	  15.7501000000	  50.1925000000
C	  22.8340000000	  16.9241000000	  49.3021000000
C	  21.4745000000	  16.7995000000	  51.1154000000
H	  24.1618000000	  15.9834000000	  50.7250000000
H	  23.3158000000	  14.8858000000	  49.5391000000
H	  23.7267000000	  17.4872000000	  49.1593000000
H	  22.5687000000	  16.5786000000	  48.3390000000
H	  20.4438000000	  16.9302000000	  51.4695000000
H	  22.1208000000	  17.3089000000	  51.9230000000
O	  19.5273000000	  17.1260000000	  47.6443000000
O	  17.9064000000	  16.8408000000	  46.1157000000
C	  19.1651000000	  15.7667000000	  47.8037000000
C	  18.3933000000	  15.5538000000	  46.5245000000
C	  18.3590000000	  17.6632000000	  47.1362000000
H	  19.9706000000	  15.0709000000	  48.0015000000
H	  18.5159000000	  15.7386000000	  48.6880000000
H	  19.1507000000	  15.1336000000	  45.8943000000
H	  17.5888000000	  14.8090000000	  46.4246000000
H	  17.6095000000	  17.7776000000	  47.8916000000
H	  18.6024000000	  18.6381000000	  46.6999000000
O	  18.2456000000	  21.5379000000	  49.3310000000
O	  19.4699000000	  19.7236000000	  49.1274000000
C	  18.4075000000	  21.1593000000	  50.6830000000
C	  19.2785000000	  19.9196000000	  50.5116000000
C	  19.1509000000	  20.9035000000	  48.5190000000
H	  18.8549000000	  22.0598000000	  51.1443000000
H	  17.3502000000	  20.9842000000	  51.0327000000
H	  20.2825000000	  20.0551000000	  51.0880000000
H	  18.8207000000	  19.1085000000	  51.0036000000
H	  18.6733000000	  20.7141000000	  47.5565000000
H	  20.1478000000	  21.3805000000	  48.4635000000
