72

Li	  23.0867000000	  47.1509000000	  32.3415000000
O	  21.9043000000	  45.6250000000	  31.4940000000
O	  23.8107000000	  48.8735000000	  33.0336000000
O	  22.7361000000	  46.7385000000	  34.0900000000
C	  22.7297000000	  45.9186000000	  29.4108000000
C	  24.6115000000	  49.8289000000	  30.9958000000
C	  22.6657000000	  44.9875000000	  30.5531000000
C	  24.7749000000	  49.8422000000	  32.5819000000
C	  23.3511000000	  45.4189000000	  28.0945000000
C	  25.5918000000	  50.7888000000	  30.3530000000
C	  21.8359000000	  44.8665000000	  32.7692000000
C	  23.5214000000	  48.9385000000	  34.4029000000
C	  21.6003000000	  45.8515000000	  33.9077000000
C	  22.3915000000	  47.9465000000	  34.8136000000
C	  22.2708000000	  44.9465000000	  27.0918000000
C	  25.6805000000	  50.7401000000	  28.7757000000
H	  21.7739000000	  46.4466000000	  29.2502000000
H	  23.3342000000	  46.7141000000	  29.7941000000
H	  24.8359000000	  48.8144000000	  30.5574000000
H	  23.6000000000	  50.0363000000	  30.7989000000
H	  23.6542000000	  44.6010000000	  30.7834000000
H	  22.0898000000	  44.0944000000	  30.3745000000
H	  24.4725000000	  50.9077000000	  32.8513000000
H	  25.7374000000	  49.5670000000	  32.9521000000
H	  23.9448000000	  46.2017000000	  27.5945000000
H	  24.0546000000	  44.6463000000	  28.3930000000
H	  25.3510000000	  51.8006000000	  30.6825000000
H	  26.5546000000	  50.4601000000	  30.6840000000
H	  21.0063000000	  44.2083000000	  32.5464000000
H	  22.7389000000	  44.2498000000	  32.8281000000
H	  23.3191000000	  49.9945000000	  34.7518000000
H	  24.4292000000	  48.6636000000	  34.8885000000
H	  20.6353000000	  46.3279000000	  33.7719000000
H	  21.4780000000	  45.1579000000	  34.7230000000
H	  21.4867000000	  48.3313000000	  34.3485000000
H	  22.2649000000	  47.7990000000	  35.8860000000
H	  22.6627000000	  44.4021000000	  26.2919000000
H	  21.4773000000	  44.3951000000	  27.5955000000
H	  21.7789000000	  45.7438000000	  26.7448000000
H	  26.6533000000	  51.0899000000	  28.4661000000
H	  25.7897000000	  49.7351000000	  28.4964000000
H	  24.9449000000	  51.2368000000	  28.1312000000
N	  20.2569000000	  49.1233000000	  29.3550000000
S	  20.5859000000	  49.2890000000	  30.9266000000
O	  21.3414000000	  48.2349000000	  31.5416000000
O	  20.8138000000	  50.6038000000	  31.3432000000
C	  18.8621000000	  49.0805000000	  31.6795000000
F	  17.9965000000	  49.9536000000	  31.1545000000
F	  18.8729000000	  49.3071000000	  32.9545000000
F	  18.3207000000	  47.8761000000	  31.5185000000
S	  20.7265000000	  50.1260000000	  28.1686000000
O	  21.7362000000	  51.1037000000	  28.5294000000
O	  19.6838000000	  50.6195000000	  27.3484000000
C	  21.6462000000	  48.8941000000	  27.0679000000
F	  20.8621000000	  47.9875000000	  26.5769000000
F	  22.1306000000	  49.4551000000	  26.0124000000
F	  22.6503000000	  48.2873000000	  27.6941000000
N	  26.4459000000	  44.7501000000	  31.3910000000
S	  27.3904000000	  43.6078000000	  31.8850000000
O	  27.7784000000	  42.6977000000	  30.8303000000
O	  28.4125000000	  43.9067000000	  32.9172000000
C	  26.1544000000	  42.6231000000	  32.7946000000
F	  25.6163000000	  43.2440000000	  33.7662000000
F	  26.6455000000	  41.5413000000	  33.4503000000
F	  25.1775000000	  42.1459000000	  32.0524000000
S	  26.5416000000	  46.2504000000	  31.8189000000
O	  27.6049000000	  46.6919000000	  32.7307000000
O	  25.2037000000	  46.7348000000	  31.9174000000
C	  27.1396000000	  46.9547000000	  30.1486000000
F	  26.2163000000	  47.1410000000	  29.2109000000
F	  27.7417000000	  48.1199000000	  30.2134000000
F	  28.0083000000	  46.0654000000	  29.6459000000
