39

Li	  53.6163000000	  34.3597000000	  57.2764000000
O	  55.5726000000	  33.8239000000	  57.8704000000
O	  57.3284000000	  32.3445000000	  57.8078000000
C	  56.8017000000	  34.5326000000	  57.5064000000
C	  57.9698000000	  33.5460000000	  57.6106000000
C	  56.1492000000	  32.7079000000	  58.4557000000
H	  56.6751000000	  34.9148000000	  56.5650000000
H	  57.0544000000	  35.3989000000	  57.9966000000
H	  58.7204000000	  33.3998000000	  56.8455000000
H	  58.4179000000	  33.8244000000	  58.5732000000
H	  56.4528000000	  33.0461000000	  59.4711323399
H	  55.6057000000	  31.8031000000	  58.5093000000
O	  53.9887000000	  34.8995000000	  53.2108000000
O	  53.7891000000	  34.9377000000	  55.5134000000
C	  54.9651000000	  35.7267000000	  53.8260000000
C	  54.3858000000	  36.1556000000	  55.2285000000
C	  53.2194000000	  34.4772000000	  54.2786000000
H	  55.8419000000	  35.0623000000	  54.0443000000
H	  55.1856000000	  36.6370000000	  53.1560000000
H	  55.1261000000	  36.3925000000	  55.9465000000
H	  53.7284000000	  36.9504000000	  55.0587000000
H	  52.1105000000	  34.6241000000	  54.1527000000
H	  53.2000000000	  33.3562000000	  54.3720000000
S	  58.7929000000	  35.5550000000	  66.9555223399
S	  59.5810209314	  34.1882000000	  65.5685223399
S	  59.0912000000	  34.5991000000	  63.5243623399
S	  55.4777000000	  35.5640000000	  60.8200423399
S	  53.4762000000	  35.8996000000	  60.4882423399
S	  53.2115000000	  36.3700000000	  58.4230000000
S	  55.6920000000	  34.7036000000	  62.7799223399
S	  57.3592000000	  33.5782000000	  62.8233923399
S	  54.2111000000	  23.1049000000	  56.7966000000
S	  54.5485000000	  24.2060000000	  55.0669000000
S	  56.0202000000	  25.7246000000	  55.3326000000
S	  53.5568000000	  29.8307000000	  57.2193000000
S	  53.6022000000	  31.9386000000	  56.6750000000
S	  52.0496000000	  33.0600000000	  57.7284000000
S	  55.4071000000	  28.8638000000	  56.8047000000
S	  55.3843000000	  27.7151000000	  54.9768000000
