43

Li	  54.5474000000	  51.2678000000	  11.2745000000
O	  56.2368000000	  50.9090000000	  11.8917000000
O	  58.4931000000	  50.5834000000	  12.4375000000
C	  56.4322000000	  50.3920000000	  13.2448000000
C	  57.8339000000	  50.9013000000	  13.5643000000
C	  57.5203000000	  50.9502000000	  11.4056000000
H	  55.5766000000	  50.7936000000	  13.9325000000
H	  56.5880000000	  49.2562000000	  13.3265000000
H	  57.9563000000	  51.9884000000	  13.5968000000
H	  58.2480000000	  50.5677000000	  14.5009000000
H	  57.6907000000	  50.3602000000	  10.5840000000
H	  57.7799000000	  51.8806000000	  11.0837000000
N	  52.6144000000	  54.2280000000	  13.7073000000
S	  51.5572000000	  54.7964000000	  14.6911000000
O	  50.5936000000	  53.7370000000	  15.0615000000
O	  52.1541000000	  55.6928000000	  15.6716000000
C	  50.5792000000	  55.9055000000	  13.5564000000
F	  50.0721000000	  55.2985000000	  12.5244000000
F	  51.2375000000	  56.9201000000	  13.1323000000
F	  49.6495000000	  56.5278000000	  14.2280000000
S	  54.0875000000	  53.8041000000	  13.9422000000
O	  54.4489000000	  52.7426000000	  13.0208000000
O	  54.4454000000	  53.6668000000	  15.3321000000
C	  54.9585000000	  55.2838000000	  13.3879000000
F	  56.2525000000	  55.1594000000	  13.6296000000
F	  54.8155000000	  55.5057000000	  12.1179000000
F	  54.5970000000	  56.3941000000	  13.9309000000
S	  61.4182109314	  55.8040000000	   1.2432600000
S	  60.7330709314	  54.0281000000	   2.1047300000
S	  61.4823609314	  53.7683000000	   4.0015900000
S	  58.3874000000	  53.0718000000	   8.3762900000
S	  56.4586000000	  52.3363000000	   7.6699300000
S	  55.1170000000	  52.3426000000	   9.2655300000
S	  59.9986709314	  52.7961000000	   7.0103500000
S	  60.3968009314	  54.3471000000	   5.6979000000
S	  54.1083000000	  49.1377000000	  10.7219000000
S	  53.5655000000	  48.9289000000	  12.8140000000
S	  53.0176000000	  46.8617000000	  13.3491000000
S	  51.0972000000	  44.8917000000	  16.7829000000
S	  49.2530000000	  44.9578000000	  17.8344000000
S	  48.5987000000	  46.9495000000	  18.2956000000
S	  50.8327000000	  44.6365000000	  14.7147000000
S	  50.8977000000	  46.4832000000	  13.6871000000
