50

Li	   8.9913500000	  22.8754000000	  57.5211000000
O	   7.8484900000	  20.7611000000	  58.5859000000
O	  10.2681000000	  24.5208000000	  57.6005000000
O	   8.9895400000	  23.0632000000	  59.5075223399
C	   7.5012400000	  18.9416000000	  56.9971000000
C	   9.7837400000	  26.6633000000	  56.4031000000
C	   6.9630400000	  19.8348000000	  58.0706000000
C	  10.7507000000	  25.4979000000	  56.7072000000
C	   7.8455900000	  19.6095000000	  55.6778000000
C	  10.4628000000	  27.5833000000	  55.3816000000
C	   7.5907000000	  21.2508000000	  59.8854123399
C	   9.9477400000	  25.0820000000	  58.8705000000
C	   8.8364900000	  22.0240000000	  60.4079423399
C	   9.9147800000	  24.0847000000	  59.8890523399
C	   7.9198000000	  18.5663000000	  54.5597000000
C	  10.3551000000	  27.0808000000	  53.9416000000
H	   8.4183300000	  18.4731000000	  57.3230000000
H	   6.7979000000	  18.1763000000	  56.9157000000
H	   8.9000000000	  26.2048000000	  55.9998000000
H	   9.6340700000	  27.2237000000	  57.3263000000
H	   6.8028300000	  19.1967000000	  58.8736000000
H	   5.9926900000	  20.3441000000	  57.8488000000
H	  11.6631000000	  25.9305000000	  57.1586000000
H	  11.0609000000	  25.0191000000	  55.7342000000
H	   7.1015400000	  20.3152000000	  55.3459000000
H	   8.7441900000	  20.1097000000	  55.7418000000
H	  10.0058000000	  28.5351000000	  55.5417000000
H	  11.5250000000	  27.7358000000	  55.5466000000
H	   6.7427100000	  21.9248000000	  59.9407223399
H	   7.4025500000	  20.4680000000	  60.6104923399
H	   8.9857700000	  25.4882000000	  58.6688000000
H	  10.7545000000	  25.8657000000	  59.1127000000
H	   8.5683300000	  22.4391000000	  61.3461923399
H	   9.7794000000	  21.4665000000	  60.5019723399
H	   9.7960300000	  24.4834000000	  60.8994623399
H	  10.9071000000	  23.5965000000	  59.8232723399
H	   7.0636200000	  17.9344000000	  54.4692000000
H	   8.1030200000	  18.9519000000	  53.5673000000
H	   8.7750100000	  17.8355000000	  54.6530000000
H	  10.7941000000	  26.1233000000	  53.8005000000
H	   9.3318600000	  26.9551000000	  53.6291000000
H	  10.8999000000	  27.7715000000	  53.2548000000
S	   8.6263900000	  22.8176000000	  55.2511000000
S	   6.9410100000	  23.1338000000	  56.5094000000
S	   6.7370700000	  25.1110000000	  57.2279000000
S	   3.2995000000	  28.6034000000	  57.6864000000
S	   3.6170600000	  28.7022000000	  59.7377223399
S	   3.7700700000	  30.6621000000	  60.5442923399
S	   5.1960800000	  28.3827000000	  56.7336000000
S	   5.4044600000	  26.2930000000	  56.1345000000
