23

Li	  21.6802000000	  46.6963000000	  20.6049000000
O	  21.6156000000	  47.8821000000	  19.1271000000
O	  21.7294000000	  47.7718000000	  16.8584000000
C	  20.5816000000	  48.8319000000	  18.6385000000
C	  20.7711000000	  48.7811000000	  17.0633000000
C	  22.4509000000	  47.7031000000	  18.0388000000
H	  19.5370000000	  48.6044000000	  18.9364000000
H	  20.8903000000	  49.8234000000	  18.9357000000
H	  19.7707000000	  48.5270000000	  16.5900000000
H	  21.0530000000	  49.8212000000	  16.7912000000
H	  23.2328000000	  48.4972000000	  18.0245000000
H	  22.8891000000	  46.7421000000	  18.2535000000
O	  19.6771000000	  43.7080000000	  20.4731000000
O	  21.2658000000	  44.8880000000	  19.6546000000
C	  19.0033000000	  44.2304000000	  19.3065000000
C	  20.2344000000	  44.9788000000	  18.7333000000
C	  21.0616000000	  43.7314000000	  20.2883000000
H	  18.7768000000	  43.5628000000	  18.5409000000
H	  18.1189000000	  44.7545000000	  19.5441000000
H	  20.5225000000	  44.7381000000	  17.7264000000
H	  20.0029000000	  46.0491000000	  18.7424000000
H	  21.6224000000	  43.6597000000	  21.2328000000
H	  21.4223000000	  42.8657000000	  19.7458000000
