50

Li	  29.7774000000	  36.6645000000	   9.4264500000
O	  31.0997000000	  37.3244000000	  10.5433000000
O	  32.7839000000	  36.2207000000	  11.6142000000
C	  32.3575000000	  37.8589000000	  10.1204000000
C	  33.4835000000	  36.9924000000	  10.7135000000
C	  31.5041000000	  36.6603000000	  11.7197000000
H	  32.4417000000	  37.8605000000	   8.9737400000
H	  32.3387000000	  38.8512000000	  10.4521000000
H	  33.9809000000	  36.3979000000	   9.9724500000
H	  34.2463000000	  37.6556000000	  11.1972000000
H	  31.3544000000	  37.3018000000	  12.5724000000
H	  30.8104000000	  35.8412000000	  11.9386000000
N	  27.6000000000	  37.9571000000	   6.2130700000
S	  28.8518000000	  38.6894000000	   6.7978800000
O	  29.6805000000	  37.9879000000	   7.7066800000
O	  29.5344000000	  39.4507000000	   5.8059700000
C	  28.1010000000	  39.9186000000	   7.8545000000
F	  28.9024000000	  40.6889000000	   8.6294400000
F	  27.3044000000	  39.3373000000	   8.6907600000
F	  27.3440000000	  40.7348000000	   7.1500400000
S	  27.4456000000	  36.3946000000	   5.9743700000
O	  26.1122000000	  35.8703000000	   6.1849900000
O	  28.6094000000	  35.5922000000	   6.3987000000
C	  27.5981000000	  36.4501000000	   4.2000500000
F	  27.4680000000	  35.2777000000	   3.6668700000
F	  26.6036000000	  37.2464000000	   3.7232400000
F	  28.7686000000	  36.8705000000	   3.7359800000
N	  27.4268000000	  35.1178000000	  12.5569000000
S	  27.8860000000	  36.5073000000	  11.9666000000
O	  28.5238000000	  37.3067000000	  12.9049000000
O	  28.3034000000	  36.5261000000	  10.5930000000
C	  26.2706000000	  37.3145000000	  11.8231000000
F	  25.6302000000	  36.9853000000	  10.7184000000
F	  26.3662000000	  38.5360000000	  11.6739000000
F	  25.3582000000	  37.1644000000	  12.8018000000
S	  28.1786000000	  34.1410000000	  13.5710000000
O	  29.5602000000	  34.4664000000	  13.8028000000
O	  27.7690000000	  32.7861000000	  13.3735000000
C	  27.3757000000	  34.6558000000	  15.1359000000
F	  27.8383000000	  34.0445000000	  16.2296000000
F	  27.4988000000	  35.9213000000	  15.3233000000
F	  26.0503000000	  34.3574000000	  15.1037000000
S	  30.3181000000	  34.6723000000	   8.9077100000
S	  32.0936000000	  33.7138000000	   9.5010300000
S	  32.4515000000	  31.8931000000	   8.4983300000
S	  37.3428000000	  29.7136000000	   8.3867700000
S	  38.7332000000	  31.1226000000	   7.6266100000
S	  40.4029000000	  31.3154000000	   8.9321000000
S	  35.4052000000	  30.2476000000	   7.7298100000
S	  34.1736000000	  31.0697000000	   9.3100000000
