38

Li	   3.2092600000	   1.9724300000	  34.0139000000
O	   2.7283900000	   2.1464900000	  32.0166000000
O	   3.0028000000	   1.2310800000	  29.9830000000
C	   3.4776000000	   3.1010200000	  31.3353000000
C	   3.8409900000	   2.3749900000	  30.0789000000
C	   2.1044300000	   1.3656400000	  31.0433000000
H	   2.8625300000	   3.9173200000	  31.0566000000
H	   4.3573600000	   3.4984600000	  31.9014000000
H	   3.7561200000	   2.9906900000	  29.2519000000
H	   4.9422600000	   2.0405300000	  30.0715000000
H	   1.6793300000	   0.4289047022	  31.3850000000
H	   1.2682300000	   1.9911500000	  30.5955000000
O	   2.7103300000	   5.9899900000	  34.8791000000
O	   3.0785200000	   3.7867200000	  34.7162000000
C	   1.5318200000	   5.4399900000	  35.2926000000
C	   1.6403100000	   4.0075200000	  34.8545000000
C	   3.6605800000	   5.0354500000	  35.0980000000
H	   1.3459100000	   5.4946100000	  36.3499000000
H	   0.6908490686	   5.8656500000	  34.8381000000
H	   1.2265200000	   3.2824500000	  35.4907000000
H	   1.1096400000	   3.7877400000	  33.9076000000
H	   4.5075400000	   5.3397400000	  34.4608000000
H	   4.0006300000	   4.9083000000	  36.1329000000
N	   6.3033700000	   0.0392047022	  33.5609000000
S	   5.0095800000	  -0.8141952978	  33.2150000000
O	   3.8521600000	  -0.0528952978	  33.6300000000
O	   5.0489100000	  -1.4705952978	  31.8736000000
C	   5.1397200000	  -2.2548952978	  34.2454000000
F	   4.1420700000	  -3.0734952978	  34.0671000000
F	   4.9643700000	  -1.9502952978	  35.4876000000
F	   6.2819500000	  -2.9221952978	  34.2038000000
S	   6.3920900000	   1.5081200000	  34.1928000000
O	   7.1988800000	   1.6408000000	  35.3991000000
O	   5.1675200000	   2.3244300000	  34.0556000000
C	   7.5607000000	   2.2012800000	  32.9210000000
F	   7.8543400000	   3.4491200000	  33.1831000000
F	   8.7102600000	   1.5107200000	  32.8170000000
F	   7.1416200000	   2.1681000000	  31.6653000000
