68

Li	  23.4055000000	   5.6152600000	  41.7463000000
O	  23.5294000000	   4.3461700000	  43.1735000000
O	  21.7955000000	   2.9548300000	  43.2000000000
C	  22.6085000000	   4.9046400000	  44.0952000000
C	  21.4813000000	   3.9235800000	  44.2350000000
C	  23.1674000000	   3.0513600000	  42.9829000000
H	  23.1094000000	   5.0031200000	  45.0429000000
H	  22.2821000000	   5.9352900000	  43.8180000000
H	  21.3823000000	   3.3622100000	  45.2157000000
H	  20.5336000000	   4.4447200000	  43.9859000000
H	  23.4390000000	   2.6695400000	  42.0246000000
H	  23.6841000000	   2.3884500000	  43.7301000000
O	  21.0805000000	   6.4540100000	  41.7667000000
O	  25.7055000000	   4.4040700000	  40.5949000000
O	  23.0150000000	   4.9579700000	  40.0612000000
C	  20.2946000000	   7.9351000000	  43.6830000000
C	  27.2530000000	   4.2230100000	  42.3513000000
C	  19.9772000000	   6.9600300000	  42.4944000000
C	  26.3970000000	   3.4788400000	  41.3576000000
C	  21.0380000000	   9.2258100000	  43.2756000000
C	  27.9328000000	   3.2253000000	  43.2900000000
C	  20.7389000000	   5.7886700000	  40.4546000000
C	  25.0584000000	   3.8375000000	  39.4598000000
C	  21.9279000000	   5.8234000000	  39.5764000000
C	  23.9393000000	   4.7694800000	  39.0059000000
C	  21.1143000000	  10.3909000000	  44.3380000000
C	  28.7998000000	   4.0793100000	  44.1584000000
H	  19.4119000000	   8.0467700000	  44.3508000000
H	  21.0201000000	   7.4477100000	  44.3666000000
H	  27.8111000000	   5.0111300000	  41.8589000000
H	  26.6148000000	   4.9038200000	  42.9241000000
H	  19.3339000000	   7.5464700000	  41.7858000000
H	  19.3735000000	   6.0787300000	  42.7660000000
H	  25.6609000000	   2.8671500000	  41.8839000000
H	  27.0545000000	   2.8180100000	  40.7644000000
H	  22.0996000000	   9.0517700000	  43.0110000000
H	  20.5116000000	   9.5998600000	  42.4484000000
H	  27.2882000000	   2.6865700000	  44.0213000000
H	  28.4863000000	   2.4391200000	  42.7575000000
H	  20.2733000000	   4.8348100000	  40.5964000000
H	  20.0210000000	   6.4248600000	  39.9857000000
H	  24.6420000000	   2.8866000000	  39.7124000000
H	  25.9034000000	   3.6972200000	  38.7750000000
H	  21.5998000000	   5.5031000000	  38.6103000000
H	  22.3364000000	   6.8243400000	  39.5097000000
H	  23.5306000000	   4.4737800000	  38.0678000000
H	  24.2479000000	   5.7169700000	  38.7681000000
H	  21.2800000000	   9.9276300000	  45.3213000000
H	  21.9836000000	  11.1324000000	  44.1157000000
H	  20.1536000000	  10.9792000000	  44.3416000000
H	  29.4389000000	   4.7079800000	  43.5364000000
H	  28.1153000000	   4.7428900000	  44.7411000000
H	  29.4238000000	   3.5189200000	  44.8239000000
N	  26.7513000000	   7.7707900000	  41.5491000000
S	  27.9523000000	   8.4933500000	  40.8190000000
O	  28.3209000000	   7.8160000000	  39.5560000000
O	  27.7142000000	   9.9162400000	  40.7616000000
C	  29.3193000000	   8.4683700000	  42.0932000000
F	  29.5988000000	   7.2688400000	  42.5681000000
F	  28.9856000000	   9.1497000000	  43.2054000000
F	  30.4125000000	   9.0501800000	  41.5600000000
S	  25.2942000000	   8.2080100000	  41.8209000000
O	  24.2913000000	   7.2225300000	  41.4967000000
O	  24.9126000000	   9.5720500000	  41.5718000000
C	  25.2861000000	   8.1115000000	  43.6579000000
F	  24.1763000000	   8.6292200000	  44.2335000000
F	  25.5406000000	   6.9087900000	  44.1274000000
F	  26.2483000000	   8.8968000000	  44.1172000000
