20

Li	  56.2072000000	  26.6689000000	  28.5146000000
O	  55.8070000000	  22.7399000000	  29.6760000000
O	  56.3069000000	  24.7962000000	  29.0261000000
C	  57.0144000000	  22.6246000000	  28.9027000000
C	  57.5073000000	  24.0655000000	  28.8372000000
C	  55.3692000000	  24.0725000000	  29.6430000000
H	  57.7412000000	  21.9443000000	  29.3199000000
H	  56.6306000000	  22.2308000000	  27.9606000000
H	  58.1873000000	  24.1337000000	  29.6904000000
H	  58.1227000000	  24.3703000000	  27.9584000000
H	  54.3294000000	  24.0631000000	  29.2304000000
H	  55.3740000000	  24.4257000000	  30.6811000000
S	  58.0262000000	  27.3277000000	  27.7832000000
S	  57.9460000000	  27.9431000000	  29.7872000000
S	  57.1463000000	  26.5413000000	  31.2030000000
S	  52.7741000000	  27.4213000000	  30.9479000000
S	  53.4390000000	  26.8674000000	  28.9608000000
S	  54.4448000000	  28.5812000000	  28.0901000000
S	  53.9410000000	  26.4928000000	  32.3961000000
S	  55.7585000000	  27.4673000000	  32.5869000000
