61

Li	  27.4708000000	   4.3071700000	  57.9657000000
O	  23.6877000000	   3.4329500000	  56.6952000000
O	  25.4901000000	   3.6199900000	  57.8465000000
C	  23.2445000000	   3.1512300000	  58.0097000000
C	  24.3545000000	   3.8524900000	  58.7579000000
C	  25.0105000000	   3.1018700000	  56.6928000000
H	  22.2021000000	   3.5369600000	  58.1716000000
H	  23.1400000000	   2.0735500000	  58.2297000000
H	  24.2060000000	   4.9217800000	  58.7338000000
H	  24.6184000000	   3.5887100000	  59.7830723399
H	  25.1164000000	   2.0099700000	  56.7694000000
H	  25.4099000000	   3.6218200000	  55.8032000000
O	  27.9714000000	   2.9226500000	  59.1508603399
O	  26.6212000000	   6.1587000000	  57.3181000000
O	  27.6226000000	   5.3707700000	  59.4949323399
C	  28.1112000000	   1.2542200000	  57.4969000000
C	  26.5719000000	   6.9815400000	  55.0320000000
C	  27.9691000000	   1.4822600000	  59.0025000000
C	  25.7292000000	   6.5771900000	  56.3084000000
C	  27.5887000000	  -0.1636952978	  57.0569000000
C	  25.7813000000	   6.8380400000	  53.7830000000
C	  27.9542000000	   3.2739800000	  60.5212423399
C	  26.8370000000	   7.1754000000	  58.2100000000
C	  28.2625000000	   4.8549200000	  60.6290323399
C	  27.9289000000	   6.7728200000	  59.2048833399
C	  27.8717000000	  -0.5003952978	  55.6040000000
C	  26.7091000000	   7.0965600000	  52.6082000000
H	  27.5033000000	   1.9735700000	  56.9488000000
H	  29.1541000000	   1.5335500000	  57.2696000000
H	  27.0327000000	   8.0023600000	  55.2295000000
H	  27.4517000000	   6.3087200000	  55.0162000000
H	  28.8461000000	   1.1360900000	  59.5487923399
H	  26.9552000000	   1.0556700000	  59.4542823399
H	  24.9864000000	   5.8057000000	  56.0831000000
H	  25.0791000000	   7.4879200000	  56.5404000000
H	  28.0277000000	  -0.9132952978	  57.7006000000
H	  26.5335000000	  -0.2179952978	  57.3060000000
H	  25.4038000000	   5.7998900000	  53.8321000000
H	  24.9343000000	   7.4520200000	  53.9931000000
H	  27.0621000000	   3.0779300000	  60.9570523399
H	  28.6996000000	   2.6644900000	  60.9585223399
H	  25.9821000000	   7.4716500000	  58.7708000000
H	  27.2254000000	   8.0089100000	  57.7491000000
H	  27.8785000000	   5.2736900000	  61.5946223399
H	  29.2532000000	   5.2329000000	  60.5087923399
H	  27.9063000000	   7.4929500000	  60.0059723399
H	  28.8878000000	   6.8256200000	  58.7057000000
H	  27.5281000000	  -1.5186952978	  55.4321000000
H	  27.2410000000	   0.0802047022	  55.0318000000
H	  28.8761000000	  -0.6117952978	  55.2564000000
H	  27.2818000000	   8.1000000000	  52.6919000000
H	  27.5153000000	   6.4468500000	  52.3785000000
H	  26.2814000000	   6.9820300000	  51.6026000000
S	  29.3849000000	   4.4176700000	  56.6879000000
S	  30.8660000000	   5.4967100000	  55.7245000000
S	  32.7630000000	   4.4499100000	  55.6305000000
S	  36.1812000000	   6.3460200000	  52.2885000000
S	  36.9484000000	   5.8361700000	  50.4246000000
S	  35.9130000000	   6.6095300000	  48.7204000000
S	  35.7616000000	   4.7040100000	  53.5973000000
S	  33.6601000000	   4.1508000000	  53.6699000000
