42

Li	  37.8263000000	  34.1449000000	  11.9801000000
O	  37.8177000000	  35.9504000000	  12.7190000000
O	  37.0690000000	  38.1415000000	  12.5937000000
C	  37.7469000000	  36.5516000000	  14.0152000000
C	  37.9710000000	  37.9928000000	  13.6188000000
C	  37.2859000000	  36.9313000000	  11.8656000000
H	  36.7066000000	  36.3632000000	  14.3542000000
H	  38.4199000000	  36.1264000000	  14.7434000000
H	  37.9181000000	  38.6672000000	  14.4397000000
H	  39.0333000000	  38.1151000000	  13.3224000000
H	  38.0324000000	  37.0371000000	  11.0008000000
H	  36.3583000000	  36.5585000000	  11.5457000000
N	  41.4969000000	  34.1420000000	  11.9731000000
S	  41.7518000000	  35.3404000000	  12.9335000000
O	  43.1447000000	  35.6810000000	  12.9354000000
O	  40.7827000000	  36.3912000000	  12.7289000000
C	  41.3907000000	  34.4847000000	  14.5290000000
F	  41.8902000000	  33.2244000000	  14.7483000000
F	  40.0947000000	  34.2815000000	  14.5331000000
F	  41.7236000000	  35.1759000000	  15.6013000000
S	  40.6860000000	  34.3213000000	  10.6408000000
O	  41.3021000000	  35.0999000000	   9.5601400000
O	  39.2335000000	  34.3486000000	  10.7940000000
C	  41.0598000000	  32.6766000000	   9.9844100000
F	  40.5219000000	  32.5152000000	   8.8184400000
F	  42.3538000000	  32.4870000000	   9.8620300000
F	  40.5135000000	  31.6453000000	  10.6508000000
N	  37.3025000000	  31.3728000000	  14.8136000000
S	  36.2754000000	  32.5326000000	  15.1244000000
O	  36.4112000000	  33.6945000000	  14.2982000000
O	  34.9738000000	  32.1277000000	  15.4815000000
C	  36.9354000000	  33.1003000000	  16.7461000000
F	  36.1291000000	  33.9477000000	  17.4089000000
F	  38.0699000000	  33.8363000000	  16.5205000000
F	  37.2490000000	  32.1887000000	  17.6368000000
S	  38.1339000000	  31.2125000000	  13.4983000000
O	  38.4357000000	  32.4794000000	  12.8285000000
O	  37.5740000000	  30.1462000000	  12.7132000000
C	  39.7234000000	  30.5614000000	  14.2493000000
F	  40.6506000000	  30.6814000000	  13.3443000000
F	  40.2138000000	  31.1843000000	  15.3484000000
F	  39.7267000000	  29.2757000000	  14.5664000000
