20

Li	  36.2115000000	  35.1107000000	   8.1095900000
O	  34.8881000000	  34.3712000000	   9.0907300000
O	  34.4401000000	  33.9053000000	  11.2897000000
C	  34.5395000000	  35.6422000000	   9.7718200000
C	  34.7639000000	  35.2673000000	  11.1880000000
C	  34.8769000000	  33.3731000000	  10.1132000000
H	  35.0774000000	  36.5083000000	   9.3418500000
H	  33.4546000000	  35.9063000000	   9.6829800000
H	  35.7879000000	  35.5019000000	  11.5261000000
H	  34.1773000000	  35.8649000000	  11.8250000000
H	  34.1893000000	  32.5470000000	   9.7894900000
H	  35.8857000000	  33.0896000000	  10.1835000000
S	  35.4468000000	  36.0786000000	   6.3254000000
S	  36.7938000000	  34.5463000000	   5.8936400000
S	  35.6980000000	  32.7635000000	   5.5848600000
S	  38.5508000000	  31.6924000000	   9.2083500000
S	  39.2753000000	  33.5878000000	   8.8257500000
S	  37.9900000000	  35.1184000000	   9.3711000000
S	  37.7537000000	  30.7585000000	   7.5058000000
S	  35.8732000000	  31.4103000000	   7.1731900000
