50

Li	  26.5561000000	  19.6313000000	  47.6483000000
O	  27.9396000000	  20.1311000000	  46.5859000000
O	  23.5802000000	  20.6510000000	  50.0004000000
O	  26.0613000000	  21.2276000000	  48.2914000000
C	  28.8175000000	  18.0130000000	  45.8955000000
C	  21.5649000000	  19.8437000000	  50.3686000000
C	  28.2457000000	  19.3955000000	  45.4438000000
C	  22.8384000000	  20.2360000000	  51.1116000000
C	  29.1313000000	  17.2420000000	  44.6227000000
C	  20.3291000000	  19.9236000000	  51.2795000000
C	  27.3445000000	  21.4065000000	  46.2573000000
C	  24.8309000000	  20.9690000000	  50.4952000000
C	  27.0046000000	  22.0986000000	  47.6028000000
C	  25.5243000000	  21.8729000000	  49.4471000000
C	  27.8409000000	  16.8174000000	  43.8494000000
C	  19.0458000000	  19.3458000000	  50.6759000000
H	  29.7606000000	  18.1115000000	  46.4759000000
H	  28.1540000000	  17.4496000000	  46.5554000000
H	  21.4607000000	  20.5719000000	  49.5828000000
H	  21.6756000000	  18.8857000000	  49.8918000000
H	  27.3269000000	  19.3274000000	  44.7754000000
H	  28.9893000000	  19.9264000000	  44.8044000000
H	  23.1983000000	  19.3098000000	  51.6187000000
H	  22.6495000000	  21.0113000000	  51.8187000000
H	  29.9201000000	  17.6777000000	  44.0013000000
H	  29.5841000000	  16.3313000000	  44.9001000000
H	  20.6353000000	  19.2793000000	  52.1690000000
H	  20.1619000000	  20.9021000000	  51.7469000000
H	  27.9927000000	  21.9702000000	  45.5591000000
H	  26.3928000000	  21.3072000000	  45.6611000000
H	  25.4670000000	  20.1389000000	  50.8387000000
H	  24.6430000000	  21.6009000000	  51.3109000000
H	  27.7868000000	  22.2980000000	  48.2933000000
H	  26.4218000000	  23.0897000000	  47.4539000000
H	  26.3038000000	  22.4836000000	  49.9340000000
H	  24.8665000000	  22.7012000000	  49.2239000000
H	  28.0926000000	  16.0788000000	  43.0802000000
H	  27.1724000000	  16.4466000000	  44.6197000000
H	  27.2613000000	  17.6017000000	  43.3446000000
H	  18.1428000000	  19.6060000000	  51.1516000000
H	  18.9387000000	  19.7662000000	  49.6779000000
H	  19.0898000000	  18.2624000000	  50.6397000000
S	  24.9913000000	  18.5148000000	  46.6130000000
S	  25.3508000000	  17.8494000000	  48.6566000000
S	  27.4355000000	  18.0212000000	  49.1077000000
S	  31.4293000000	  20.4840000000	  50.2052000000
S	  31.9013000000	  21.8018000000	  51.8313000000
S	  32.9221000000	  23.6306000000	  51.2888000000
S	  29.5225000000	  20.8997000000	  49.5817000000
S	  28.0991000000	  19.5161000000	  50.3660000000
