64

Li	  29.3988000000	  15.3980000000	  50.9083000000
O	  29.5024000000	  15.0401000000	  52.7693000000
O	  30.2074000000	  14.9812000000	  54.8782000000
C	  28.7268000000	  13.9764000000	  53.3627000000
C	  29.5938000000	  13.7168000000	  54.5957000000
C	  30.5186000000	  15.4191000000	  53.6127000000
H	  27.7513000000	  14.2772000000	  53.6070000000
H	  28.6713000000	  13.1125000000	  52.7184000000
H	  29.1339000000	  13.2125000000	  55.4868000000
H	  30.3554000000	  13.0536000000	  54.1585000000
H	  31.4632000000	  14.9730000000	  53.4323000000
H	  30.6506000000	  16.4608000000	  53.5758000000
O	  25.7145000000	  15.0899000000	  49.9796000000
O	  27.6890000000	  15.9082000000	  50.7461000000
C	  25.3523000000	  15.8989000000	  51.0758000000
C	  26.6979000000	  16.5372000000	  51.5338000000
C	  27.0135000000	  15.4537000000	  49.5988000000
H	  24.6143000000	  16.6437000000	  50.8645000000
H	  24.9719000000	  15.1688000000	  51.7745000000
H	  26.7982000000	  17.6160000000	  51.5006000000
H	  26.9677000000	  16.2252000000	  52.5629000000
H	  27.6668000000	  14.6220000000	  49.3461000000
H	  26.9377000000	  16.1805000000	  48.8051000000
O	  30.4214000000	  17.2339000000	  50.8001000000
O	  28.8564000000	  12.7511000000	  50.2802000000
O	  30.4688000000	  14.7932000000	  49.5936000000
C	  29.8210000000	  18.9123000000	  52.3723000000
C	  26.9050000000	  11.8249000000	  51.3448000000
C	  29.9007000000	  18.5342000000	  50.9434000000
C	  27.8235000000	  11.7448000000	  50.1800000000
C	  29.2403000000	  20.3185000000	  52.5876000000
C	  25.5678000000	  11.0285000000	  51.0818000000
C	  31.0576000000	  17.1326000000	  49.5617000000
C	  30.0660000000	  12.3719000000	  49.5663000000
C	  31.5800000000	  15.6949000000	  49.4355000000
C	  31.0784000000	  13.4472000000	  49.7459000000
C	  29.4223000000	  20.9487000000	  53.9497000000
C	  25.9311000000	   9.6274900000	  50.8417000000
H	  29.2459000000	  18.1291000000	  52.8652000000
H	  30.7874000000	  18.8269000000	  52.7311000000
H	  27.4917000000	  11.5076000000	  52.1312000000
H	  26.6840000000	  12.8763000000	  51.5512000000
H	  30.5490000000	  19.2447000000	  50.4188000000
H	  28.9478000000	  18.5388000000	  50.4459000000
H	  27.2937000000	  11.9191000000	  49.2500000000
H	  28.2649000000	  10.7387000000	  50.0219000000
H	  29.6195000000	  21.0415000000	  51.8933000000
H	  28.1789000000	  20.3717000000	  52.5251000000
H	  24.9739000000	  11.0502000000	  52.0256000000
H	  24.9090000000	  11.3605000000	  50.2418000000
H	  30.3929000000	  17.4666000000	  48.7388000000
H	  31.9805000000	  17.7047000000	  49.6395000000
H	  29.8229000000	  12.2706000000	  48.4626000000
H	  30.3638000000	  11.3758000000	  49.8255000000
H	  31.9400000000	  15.5389000000	  48.4021000000
H	  32.3938000000	  15.5850000000	  50.1640000000
H	  31.9371000000	  13.1890000000	  49.1281000000
H	  31.2097000000	  13.3046000000	  50.8072000000
H	  29.0615000000	  20.2825000000	  54.8056000000
H	  30.4826000000	  21.1765000000	  54.0321000000
H	  28.8370000000	  21.8500000000	  54.0058000000
H	  26.3085000000	   9.5483000000	  49.7987000000
H	  26.6331000000	   9.3121900000	  51.5880000000
H	  25.0896000000	   8.9627900000	  50.8916000000
