69

Li	  26.7958000000	  51.5839000000	  23.9585000000
P	  23.5265000000	  52.9460000000	  23.7463000000
O	  23.1905000000	  53.4316000000	  22.2794000000
O	  22.1113000000	  52.1966000000	  24.0638000000
O	  23.4123000000	  54.3228000000	  24.5116000000
O	  24.7312000000	  52.1102000000	  23.9860000000
C	  24.2269000000	  54.1538000000	  21.4994000000
C	  21.9443000000	  50.8467000000	  23.6979000000
C	  23.7391000000	  54.2861000000	  25.9019000000
H	  23.9976000000	  54.0554000000	  20.4677000000
H	  24.3901000000	  55.2186000000	  21.7458000000
H	  25.2221000000	  53.7293000000	  21.6541000000
H	  21.3395000000	  50.7512000000	  22.8513000000
H	  22.9056000000	  50.5051000000	  23.4676000000
H	  21.3620000000	  50.2904000000	  24.4801000000
H	  24.2516000000	  55.1909000000	  26.1459000000
H	  22.9355000000	  54.2450000000	  26.6974000000
H	  24.2918000000	  53.3739000000	  26.0774000000
P	  26.2364000000	  49.4321000000	  21.4874000000
O	  26.2288000000	  49.8124000000	  19.9178000000
O	  27.2276000000	  48.1501000000	  21.3983000000
O	  24.7246000000	  48.8188000000	  21.5918000000
O	  26.5911000000	  50.6001000000	  22.3828000000
C	  25.2921000000	  50.7348000000	  19.4065000000
C	  28.5395000000	  48.4480000000	  21.0141000000
C	  24.5388000000	  47.8876000000	  22.6786000000
H	  24.3236000000	  50.2827000000	  19.5389000000
H	  25.3835000000	  51.7431000000	  19.9640000000
H	  25.4469000000	  50.9152000000	  18.3536000000
H	  28.7650000000	  48.8627000000	  20.0157000000
H	  29.1158000000	  48.9806000000	  21.7185000000
H	  28.8902000000	  47.4149000000	  20.8214000000
H	  24.6717000000	  48.3221000000	  23.6363000000
H	  23.5094000000	  47.4802000000	  22.6434000000
H	  25.2681000000	  47.1217000000	  22.5165000000
P	  26.9831000000	  49.6377000000	  26.6060000000
O	  27.6112000000	  50.1864000000	  27.9980000000
O	  25.4449000000	  49.4245000000	  26.8763000000
O	  27.3245000000	  48.0807000000	  26.3893000000
O	  27.1474000000	  50.4937000000	  25.4120000000
C	  28.2519000000	  51.5052000000	  27.9644000000
C	  24.7963000000	  50.5387000000	  27.2983000000
C	  26.9328000000	  47.3306000000	  25.1283000000
H	  28.4278000000	  51.8716000000	  28.9535000000
H	  29.2282000000	  51.5556000000	  27.4775000000
H	  27.8090000000	  52.3151000000	  27.3609000000
H	  23.7080000000	  50.5522000000	  27.1858000000
H	  25.1458000000	  50.6394000000	  28.3920000000
H	  25.1769000000	  51.4218000000	  26.8387000000
H	  27.7597000000	  46.5822000000	  24.9517000000
H	  25.9755000000	  46.8683000000	  25.2336000000
H	  26.8629000000	  47.9268000000	  24.2838000000
P	  28.4429000000	  54.3770000000	  23.3087000000
O	  29.4945000000	  55.2054000000	  24.2702000000
O	  29.3759000000	  53.6849000000	  22.1893000000
O	  27.5929000000	  55.5604000000	  22.5575000000
O	  27.6232000000	  53.3902000000	  24.0237000000
C	  30.1941000000	  54.4107000000	  25.1770000000
C	  28.7824000000	  53.1220000000	  21.0635000000
C	  26.7981000000	  56.3967000000	  23.3905000000
H	  31.0323000000	  54.9753000000	  25.5252000000
H	  29.5869000000	  53.9351000000	  25.9888000000
H	  30.8257000000	  53.6767000000	  24.6322000000
H	  28.9688000000	  53.7655000000	  20.1884000000
H	  28.9568000000	  52.0472000000	  21.0099000000
H	  27.7280000000	  53.3251000000	  21.0404000000
H	  26.5623000000	  56.0013000000	  24.3923000000
H	  27.2590000000	  57.3915000000	  23.3296000000
H	  25.8677000000	  56.4688000000	  22.8820000000
