51

Li	  21.0363000000	  17.0112000000	  52.1024000000
O	  19.8860000000	  16.2748000000	  50.7338000000
O	  19.0270000000	  16.4849000000	  48.7607000000
C	  19.4523000000	  14.9224000000	  50.4266000000
C	  18.7248000000	  15.1349000000	  49.0777000000
C	  20.1642000000	  16.6999000000	  49.4525000000
H	  20.2907000000	  14.2082000000	  50.4323000000
H	  18.7164000000	  14.5023000000	  51.2090000000
H	  19.0533000000	  14.5899000000	  48.1624000000
H	  17.6484000000	  15.0300000000	  49.3096000000
H	  20.4033000000	  17.7290000000	  49.3669000000
H	  21.0033000000	  16.1976000000	  49.0358000000
O	  20.4254000000	  15.9942000000	  53.5337000000
O	  19.2056000000	  14.3572000000	  54.5579000000
C	  21.3821000000	  15.3602000000	  54.3505000000
C	  20.5303000000	  14.2242000000	  55.0181000000
C	  19.1555000000	  15.7081000000	  54.2217000000
H	  22.1714000000	  14.9470000000	  53.7092000000
H	  21.8382000000	  16.0345000000	  55.0968000000
H	  21.0358000000	  13.3170000000	  54.7895000000
H	  20.3741000000	  14.3725000000	  56.1142000000
H	  18.9746000000	  16.3617000000	  55.0053000000
H	  18.2966000000	  15.9725000000	  53.6725000000
O	  20.8513000000	  18.7310000000	  52.2002000000
O	  22.1171000000	  20.5451000000	  52.7958000000
C	  21.1676000000	  19.5344000000	  51.0542000000
C	  21.6184000000	  20.8922000000	  51.5685000000
C	  21.2575000000	  19.5193000000	  53.2911000000
H	  21.8933000000	  19.0912000000	  50.3993000000
H	  20.1880000000	  19.5986000000	  50.5863000000
H	  22.2866000000	  21.3487000000	  50.8962000000
H	  20.7179000000	  21.5327000000	  51.6382000000
H	  20.3642000000	  19.9794000000	  53.8413000000
H	  21.7051000000	  18.8488000000	  54.0101000000
P	  24.3493000000	  16.8755000000	  51.1415000000
O	  25.4330000000	  17.6553000000	  52.0671000000
O	  25.0533000000	  15.4090000000	  50.8601000000
O	  24.5392000000	  17.7394000000	  49.8033000000
O	  22.9763000000	  16.7873000000	  51.7056000000
C	  24.8863000000	  18.3140000000	  53.1583000000
C	  25.2136000000	  14.3715000000	  51.7706000000
C	  23.6585000000	  17.4719000000	  48.6991000000
H	  24.1598000000	  19.1021000000	  52.8893000000
H	  24.5352000000	  17.4654000000	  53.7545000000
H	  25.7041000000	  18.7235000000	  53.7136000000
H	  24.4313000000	  13.7141000000	  51.3867000000
H	  26.1661000000	  13.8384000000	  51.6461000000
H	  24.9499000000	  14.6334000000	  52.7724000000
H	  23.5168000000	  16.3934000000	  48.5844000000
H	  22.6451000000	  17.9585000000	  48.9576000000
H	  24.1679000000	  18.0011000000	  47.9136000000
