34

Li	  39.6099000000	  13.4611000000	  14.2583000000
P	  42.7639000000	  14.6959000000	  13.3590000000
O	  44.0812000000	  13.9102000000	  12.9132000000
O	  42.7554000000	  15.9522000000	  12.3657000000
O	  43.2928000000	  15.4090000000	  14.7631000000
O	  41.4914000000	  13.9026000000	  13.3994000000
C	  44.2403000000	  12.4403000000	  13.0652000000
C	  41.6809000000	  16.7997000000	  12.1946000000
C	  43.2182000000	  14.7891000000	  15.9619000000
H	  44.8329000000	  12.0981000000	  13.9307000000
H	  43.2784000000	  12.0187000000	  13.1177000000
H	  44.7980000000	  12.0736000000	  12.2105000000
H	  42.1152000000	  17.7444000000	  11.7464000000
H	  40.9179000000	  16.3908000000	  11.5374000000
H	  41.1403000000	  17.1113000000	  13.1181000000
H	  43.6049000000	  13.8285000000	  15.8932000000
H	  43.8279000000	  15.2150000000	  16.7512000000
H	  42.1867000000	  14.7516000000	  16.2818000000
S	  35.8597000000	   4.7573200000	  20.7358000000
S	  35.4838000000	   6.6750400000	  21.6372000000
S	  35.2066000000	   8.2799800000	  20.2912000000
S	  38.5355000000	  10.0187000000	  17.1619000000
S	  40.2366000000	  11.3094000000	  17.2347000000
S	  39.8328000000	  13.0594000000	  16.2853000000
S	  38.3689000000	   9.0433200000	  19.0966000000
S	  36.7592000000	   9.6435200000	  20.3075000000
S	  31.4804000000	  21.8800000000	  10.4000000000
S	  32.3486000000	  19.9248000000	  10.3863000000
S	  33.7587000000	  19.4914000000	   8.9753300000
S	  37.9203000000	  16.2134000000	  10.2941000000
S	  37.5119000000	  14.7660000000	  11.7580000000
S	  38.5917000000	  15.1885000000	  13.5554000000
S	  36.1014000000	  16.8944000000	   9.4608100000
S	  35.6777000000	  18.9760000000	   9.7969600000
