65

Li	  27.8922000000	   2.9158900000	  12.5763000000
P	  25.3112000000	   0.9863160000	  12.0461000000
O	  24.2490000000	   1.9968200000	  11.2790000000
O	  25.1305000000	  -0.3354145824	  11.1757000000
O	  24.6025000000	   0.4868854176	  13.4279000000
O	  26.6681000000	   1.5503400000	  12.0992000000
C	  24.6569000000	   2.6210100000	  10.0685000000
C	  26.2075000000	  -1.2124145824	  10.9154000000
C	  24.6632000000	   1.3353100000	  14.5575000000
H	  23.8780000000	   3.3406300000	   9.7465700000
H	  25.5585000000	   3.2866400000	  10.2810000000
H	  24.8160000000	   1.8977500000	   9.2511600000
H	  26.1570000000	  -1.9012145824	  10.0673000000
H	  27.1520000000	  -0.7680145824	  10.8833000000
H	  26.2709000000	  -1.8800145824	  11.7554000000
H	  24.9344000000	   0.7778854176	  15.4972000000
H	  25.2355000000	   2.2910800000	  14.4421000000
H	  23.6586000000	   1.7215200000	  14.7650000000
P	  30.2389000000	   1.2802500000	  11.8051000000
O	  29.6089000000	   0.4191854176	  10.5475000000
O	  31.7940000000	   1.3825900000	  11.3837000000
O	  30.3236000000	   0.2197854176	  13.0345000000
O	  29.5799000000	   2.5559900000	  12.1687000000
C	  29.0214000000	   1.0969500000	   9.5260400000
C	  32.6537000000	   2.4923000000	  11.8026000000
C	  29.6031000000	   0.5081854176	  14.2118000000
H	  28.8542000000	   2.1414600000	   9.5831900000
H	  29.7563000000	   1.0299100000	   8.7311800000
H	  28.1218000000	   0.5449854176	   9.1942700000
H	  32.1697000000	   3.4799000000	  11.5603000000
H	  32.9423000000	   2.4897600000	  12.9204000000
H	  33.5309000000	   2.4435800000	  11.1128000000
H	  29.8571000000	  -0.1039145824	  15.0522000000
H	  29.6759000000	   1.5846100000	  14.5218000000
H	  28.6276000000	   0.1244854176	  13.8487000000
N	  28.8964000000	   4.0822100000	  16.3217000000
S	  27.5882000000	   3.4052900000	  15.6288000000
O	  27.3182000000	   3.8116100000	  14.2404000000
O	  27.4644000000	   2.0260800000	  15.9554000000
C	  26.2382000000	   4.1655800000	  16.5872000000
F	  26.5457000000	   4.3526700000	  17.8682000000
F	  25.0864000000	   3.5788900000	  16.6220000000
F	  25.9897000000	   5.3942600000	  16.1396000000
S	  30.0737000000	   4.6724900000	  15.5352000000
O	  30.2710000000	   5.9991600000	  15.9814000000
O	  30.1168000000	   4.4040300000	  14.0937000000
C	  31.4785000000	   3.6744200000	  16.2821000000
F	  31.4826000000	   2.3923100000	  15.9179000000
F	  32.6597000000	   4.0967900000	  15.9120000000
F	  31.3874000000	   3.7171300000	  17.5649000000
N	  28.0482000000	   4.6898900000	   8.5642800000
S	  27.7076000000	   5.3056700000	   9.9719000000
O	  26.6634000000	   6.2884900000	  10.0477000000
O	  27.7849000000	   4.3660500000	  11.0605000000
C	  29.2164000000	   6.2754600000	  10.1537000000
F	  29.2287000000	   7.2413700000	   9.3124600000
F	  30.3256000000	   5.5396700000	  10.0074000000
F	  29.3274000000	   6.8050400000	  11.3406000000
S	  27.0467000000	   4.0131200000	   7.6072700000
O	  25.6613000000	   4.2669700000	   7.8071400000
O	  27.4842000000	   2.6809800000	   7.2112000000
C	  27.4711000000	   5.0163500000	   6.0617700000
F	  26.6546000000	   4.8714400000	   5.0832200000
F	  27.5160000000	   6.3291200000	   6.3240400000
F	  28.6468000000	   4.7397100000	   5.5210700000
