52

Li	  34.2494000000	  46.3888000000	  24.1079000000
P	  34.8792000000	  48.1120000000	  26.7215000000
O	  35.9465000000	  47.7261000000	  27.8729000000
O	  35.0238000000	  46.8471000000	  25.7184000000
O	  35.6752000000	  49.2716000000	  25.8886000000
O	  33.4778000000	  48.3276000000	  27.1749000000
C	  36.0837000000	  48.5950000000	  29.0257000000
C	  34.9639000000	  45.5615000000	  26.1554000000
C	  34.8371000000	  50.1882000000	  25.2198000000
H	  35.1763000000	  48.5777000000	  29.7271000000
H	  36.9096000000	  48.1552000000	  29.6595000000
H	  36.3481000000	  49.6011000000	  28.7531000000
H	  34.4181000000	  44.9600000000	  25.5303000000
H	  35.9901000000	  45.3075000000	  26.2963000000
H	  34.4741000000	  45.4119000000	  27.1135000000
H	  34.2785000000	  49.5701000000	  24.5134000000
H	  34.2619000000	  50.7722000000	  25.9303000000
H	  35.4991000000	  50.8003000000	  24.4755000000
P	  33.1968000000	  43.7095000000	  22.5491000000
O	  33.4358000000	  43.3558000000	  21.0289000000
O	  33.3579000000	  42.3283000000	  23.2881000000
O	  31.6010000000	  43.9552000000	  22.6290000000
O	  33.9908000000	  44.9020000000	  23.1364000000
C	  34.6459000000	  42.8924000000	  20.5839000000
C	  34.5978000000	  41.9833000000	  23.9366000000
C	  31.0475000000	  44.9425000000	  21.7798000000
H	  35.3311000000	  43.6279000000	  20.9340000000
H	  34.9831000000	  41.9026000000	  20.8884000000
H	  34.7912000000	  42.8729000000	  19.5341000000
H	  35.3773000000	  42.7949000000	  23.9469000000
H	  34.4064000000	  41.7480000000	  25.0350000000
H	  35.0518000000	  41.1414000000	  23.4081000000
H	  30.7039000000	  45.8226000000	  22.3977000000
H	  31.6475000000	  45.1734000000	  20.9958000000
H	  30.1048000000	  44.5957000000	  21.5176000000
P	  35.3953000000	  48.0464000000	  21.4614000000
O	  35.2664000000	  47.0412000000	  20.2133000000
O	  34.5708000000	  49.3945000000	  21.0674000000
O	  36.9063000000	  48.5968000000	  21.3373000000
O	  35.0283000000	  47.4940000000	  22.8153000000
C	  34.0917000000	  46.4969000000	  19.9644000000
C	  34.7403000000	  50.6044000000	  21.7698000000
C	  37.4771000000	  49.1190000000	  20.1402000000
H	  33.6103000000	  46.1349000000	  20.8710000000
H	  33.4375000000	  47.2467000000	  19.5135000000
H	  34.1842000000	  45.6970000000	  19.2686000000
H	  35.6015000000	  50.6538000000	  22.4051000000
H	  34.6842000000	  51.4001000000	  20.9750000000
H	  33.8641000000	  50.7426000000	  22.3618000000
H	  37.8126000000	  48.3232000000	  19.4164000000
H	  36.8697000000	  49.8526000000	  19.6493000000
H	  38.3077000000	  49.6834000000	  20.4981000000
