48

Li	  50.7661000000	  13.5094000000	  52.8034000000
O	  49.5825000000	   9.8767300000	  54.2220000000
O	  50.4979000000	  11.8252000000	  53.4417000000
C	  50.2935000000	   9.5582200000	  53.0540000000
C	  50.5871000000	  10.9215000000	  52.4020000000
C	  50.2387000000	  11.0342000000	  54.5729000000
H	  51.2516000000	   9.1012600000	  53.2474000000
H	  49.7227000000	   8.9434300000	  52.4194000000
H	  51.5977000000	  10.9785000000	  51.9709000000
H	  49.7747000000	  11.1374000000	  51.6727000000
H	  49.6740000000	  11.5409000000	  55.3012000000
H	  51.1746000000	  10.7992000000	  55.0464000000
O	  48.4309000000	  13.3890000000	  49.4057000000
O	  49.6617000000	  13.6621000000	  51.1481000000
C	  49.3659000000	  14.3505000000	  49.0095000000
C	  50.4440000000	  14.0403000000	  50.0261000000
C	  48.4116000000	  13.4277000000	  50.7841000000
H	  49.6674000000	  14.0932000000	  47.9633000000
H	  49.0605000000	  15.3717000000	  49.1187000000
H	  50.9749000000	  13.0962000000	  49.7520000000
H	  51.2376000000	  14.8420000000	  50.0768000000
H	  47.7180000000	  14.2321000000	  51.1144000000
H	  48.0681000000	  12.4023000000	  51.1185000000
P	  53.6239000000	  14.6543000000	  52.1681000000
O	  54.5605000000	  15.0027000000	  53.4360000000
O	  54.7395000000	  14.4194000000	  51.0425000000
O	  53.0939000000	  16.0855000000	  51.6846000000
O	  52.5219000000	  13.6901000000	  52.2619000000
C	  54.1268000000	  15.1277000000	  54.7408000000
C	  55.6588000000	  13.3567000000	  51.1766000000
C	  53.7497000000	  16.9830000000	  50.7080000000
H	  54.8885000000	  15.6070000000	  55.3964000000
H	  53.3874000000	  15.8360000000	  54.8652000000
H	  53.8408000000	  14.1426000000	  55.1203000000
H	  55.1201000000	  12.4324000000	  51.1016000000
H	  56.5487000000	  13.4449000000	  50.5206000000
H	  56.0917000000	  13.3498000000	  52.1756000000
H	  53.8579000000	  16.6090000000	  49.7000000000
H	  53.0543000000	  17.8169000000	  50.4891000000
H	  54.6528000000	  17.3885000000	  51.0826000000
S	  42.4843000000	  20.7617000000	  56.3980000000
S	  44.5821000000	  20.1948000000	  56.3183000000
S	  45.2818000000	  19.3128000000	  58.1572000000
S	  47.5258000000	  15.3182000000	  56.2338000000
S	  49.4235000000	  14.5195000000	  55.9382000000
S	  50.2411000000	  15.0966000000	  54.0819000000
S	  47.2822000000	  16.3481000000	  58.0643000000
S	  45.2960000000	  17.1854000000	  58.0870000000
