42

Li	   4.9689500000	  35.8820000000	  16.7824000000
O	   6.3015600000	  36.9281000000	  15.6108000000
O	   8.4227200000	  37.6846000000	  14.9659000000
C	   6.2940000000	  38.3657000000	  15.6223000000
C	   7.6147800000	  38.7848000000	  14.9100000000
C	   7.5087600000	  36.6591000000	  14.8711000000
H	   5.5361700000	  38.7103000000	  14.9596000000
H	   6.1052100000	  38.7787000000	  16.6449000000
H	   7.3877400000	  39.0536000000	  13.8528000000
H	   8.0032600000	  39.6870000000	  15.4149000000
H	   7.8152500000	  35.7167000000	  15.1643000000
H	   7.2974500000	  36.5978000000	  13.7723000000
O	   5.9162600000	  36.5562000000	  18.2799000000
O	   7.8062700000	  37.3063000000	  19.1299000000
C	   5.5082200000	  37.5070000000	  19.2466000000
C	   6.8145700000	  37.8503000000	  19.9371000000
C	   7.2216600000	  36.2048000000	  18.5828000000
H	   5.1016400000	  38.4371000000	  18.8730000000
H	   4.7647000000	  37.2187000000	  19.9581000000
H	   7.0970800000	  38.9147000000	  20.2362000000
H	   6.8471400000	  37.2976000000	  20.8934000000
H	   7.1941100000	  35.4466000000	  19.3659000000
H	   7.8050500000	  35.6894000000	  17.8209000000
O	   2.2815400000	  38.3472000000	  15.4103000000
O	   3.3830600000	  36.7110000000	  16.3622000000
C	   2.2631100000	  37.2316000000	  14.5181000000
C	   2.7127400000	  35.9993000000	  15.3691000000
C	   2.6532400000	  37.8481000000	  16.6304000000
H	   1.2472800000	  37.0346000000	  14.1461000000
H	   2.8780400000	  37.3805000000	  13.6372000000
H	   1.8074300000	  35.5912000000	  15.6765000000
H	   3.3382700000	  35.3166000000	  14.8339000000
H	   3.3428400000	  38.7185000000	  17.0514000000
H	   1.8267100000	  37.6529000000	  17.3591000000
S	   4.8861600000	  33.7686000000	  16.5605000000
S	   4.4029800000	  33.9117000000	  18.6308000000
S	   5.2854500000	  32.4002000000	  19.6972000000
S	   6.1300700000	  35.8959000000	  23.1447000000
S	   5.8980900000	  36.4156000000	  25.1344000000
S	   5.6754900000	  38.4594000000	  25.6496000000
S	   6.4191200000	  33.7874000000	  22.8770000000
S	   6.9025200000	  33.0939000000	  20.9155000000
