31

Li	  43.0228000000	  39.1832000000	  10.2020000000
O	  41.2530000000	  38.7662000000	   9.9941300000
O	  39.2107000000	  37.8600000000	   9.6674300000
C	  40.2552000000	  39.4352000000	  10.7916000000
C	  38.9490000000	  39.1360000000	  10.0445000000
C	  40.5705000000	  37.8046000000	   9.3168600000
H	  40.3946000000	  38.9624000000	  11.7979000000
H	  40.4705000000	  40.4277000000	  11.0961000000
H	  38.1556000000	  39.1734000000	  10.7844000000
H	  38.7253000000	  39.7997000000	   9.1872900000
H	  40.7747000000	  38.0035000000	   8.3204400000
H	  40.9382000000	  36.8855000000	   9.7194300000
O	  42.7312000000	  42.1402000000	  12.9646000000
O	  43.2617000000	  40.5137000000	  11.5112000000
C	  43.0860000000	  41.0187000000	  13.7631000000
C	  43.6523000000	  39.9797000000	  12.7734000000
C	  43.3530000000	  41.9356000000	  11.7621000000
H	  43.6638000000	  41.0848000000	  14.7654000000
H	  42.0987000000	  40.6767000000	  14.2403000000
H	  44.7597000000	  40.0214000000	  12.7842000000
H	  43.3519000000	  38.9769000000	  12.9564000000
H	  43.0497000000	  42.6379000000	  10.9501000000
H	  44.3915000000	  42.2569000000	  11.8815000000
S	  47.4718000000	  35.5890000000	   0.7486046734
S	  46.1797000000	  37.3132000000	   0.5083046734
S	  45.5346000000	  38.0275000000	   2.3572600000
S	  42.4034000000	  37.7829000000	   6.1235000000
S	  44.0357000000	  38.1523000000	   7.3728500000
S	  43.7290000000	  40.0106000000	   8.4766800000
S	  42.8722000000	  36.8177000000	   4.3127000000
S	  43.3992000000	  38.0003000000	   2.5922900000
