43

Li	   6.2933600000	   3.7862000000	  29.3832000000
P	   8.9183600000	   2.8309600000	  30.7702000000
O	   8.3107500000	   2.3036700000	  32.2307000000
O	   9.9427100000	   1.6159100000	  30.4786000000
O	   9.8817400000	   4.0880600000	  31.2478000000
O	   7.9606400000	   3.1379200000	  29.6693000000
C	   7.7453500000	   1.0298900000	  32.2536000000
C	  10.5941000000	   1.5647100000	  29.2295000000
C	   9.1959600000	   5.3212800000	  31.4719000000
H	   7.7049700000	   0.5363854176	  33.2125000000
H	   6.7102700000	   1.1676800000	  31.9786000000
H	   8.1316300000	   0.2958854176	  31.5148000000
H	  11.5791000000	   1.9827700000	  29.3405000000
H	  10.6019000000	   0.5583854176	  28.9420000000
H	  10.0459000000	   2.0707900000	  28.4627000000
H	   8.5045500000	   5.4809000000	  30.6549000000
H	   8.4741600000	   5.2652800000	  32.1986000000
H	   9.8576000000	   6.1663200000	  31.6886000000
P	   6.3720700000	   6.9619400000	  28.3279000000
O	   5.8913200000	   7.4526800000	  26.8895000000
O	   5.4175600000	   7.8789900000	  29.2865000000
O	   7.7855000000	   7.7135800000	  28.3612000000
O	   6.4481300000	   5.5029000000	  28.6560000000
C	   4.7705700000	   6.8569300000	  26.1539000000
C	   4.2494800000	   7.3037100000	  29.9201000000
C	   8.9069600000	   7.1296300000	  27.7345000000
H	   4.7003500000	   7.4267600000	  25.2065000000
H	   4.9730500000	   5.8177600000	  25.9163000000
H	   3.8585300000	   6.8786300000	  26.7242000000
H	   4.6821800000	   6.6846400000	  30.7380000000
H	   3.7086000000	   8.2111800000	  30.3994000000
H	   3.5854700000	   6.6534800000	  29.2892000000
H	   9.4063000000	   7.8060800000	  27.0139000000
H	   9.5732700000	   6.8033000000	  28.5982000000
H	   8.7314600000	   6.1866900000	  27.2436000000
S	  10.4480000000	   1.1727600000	  22.3232000000
S	  10.7483000000	   1.6968000000	  24.3617000000
S	   9.0296800000	   1.4583300000	  25.5908000000
S	   5.2800200000	   2.1393800000	  27.6424000000
S	   4.1070300000	   3.2889500000	  28.9898000000
S	   4.9337100000	   3.5504200000	  30.9511000000
S	   5.9941400000	   3.1393500000	  25.8589000000
S	   8.1066200000	   3.2019100000	  25.8826000000
