26

Li	   9.8588000000	   7.2131900000	  12.7567000000
P	  12.9507000000	   6.4603400000	  12.1896000000
O	  14.1811000000	   7.4215600000	  12.3473000000
O	  13.3882000000	   5.1170100000	  12.9390000000
O	  13.1046000000	   5.9911200000	  10.6556000000
O	  11.6368000000	   6.9430000000	  12.5739000000
C	  14.0320000000	   8.8115100000	  11.9266000000
C	  13.8413000000	   5.2020000000	  14.3019000000
C	  12.1421000000	   5.3576400000	   9.8617800000
H	  13.2632000000	   8.7511200000	  11.2063000000
H	  13.4888000000	   9.2871500000	  12.7664000000
H	  14.8217000000	   9.3640200000	  11.4033000000
H	  14.1294000000	   4.2979800000	  14.7392000000
H	  14.6439000000	   5.9014100000	  14.3251000000
H	  12.9692000000	   5.6842700000	  14.7818000000
H	  11.2607000000	   5.2167300000	  10.3686000000
H	  12.0680000000	   5.9051400000	   8.8684800000
H	  12.5885000000	   4.4388600000	   9.5084000000
S	   8.8386000000	   8.9196000000	  13.2175000000
S	   8.8134800000	   9.1685900000	  11.1176000000
S	   9.7906400000	   7.6586100000	   9.9026300000
S	   7.4905000000	   4.3508600000	  11.8580000000
S	   8.7720700000	   3.9724200000	  13.5545000000
S	   9.1853500000	   5.7663900000	  14.4156000000
S	   8.4751500000	   4.3754000000	   9.9357100000
S	   8.4164200000	   6.2755400000	   9.1110600000
