67

Li	  38.3430000000	  30.7542000000	  38.7760000000
P	  40.9181000000	  29.7659000000	  37.2456000000
O	  40.9309000000	  30.5408000000	  35.7924000000
O	  42.5211000000	  29.6669000000	  37.5899000000
O	  40.6812000000	  28.2580000000	  36.6950000000
O	  40.0132000000	  30.2740000000	  38.3408000000
C	  41.0605000000	  31.9871000000	  35.8310000000
C	  42.9908000000	  28.8950000000	  38.6523000000
C	  39.4257000000	  27.7746000000	  36.3160000000
H	  40.0549000000	  32.3782000000	  35.6307000000
H	  41.4518000000	  32.2585000000	  36.9113000000
H	  41.7994000000	  32.2491000000	  35.0752000000
H	  43.8980000000	  29.3066000000	  39.0981000000
H	  42.3492000000	  28.8881000000	  39.4645000000
H	  43.3196000000	  27.9234000000	  38.3328000000
H	  39.0743000000	  27.1629000000	  37.2264000000
H	  38.6555000000	  28.5671000000	  36.0830000000
H	  39.5379000000	  27.1384000000	  35.3895000000
P	  36.9722000000	  30.8820000000	  41.8196000000
O	  35.8649000000	  29.6523000000	  41.5914000000
O	  37.5458000000	  30.5801000000	  43.2669000000
O	  36.0316000000	  32.1807000000	  42.0985000000
O	  37.9165000000	  30.9546000000	  40.6690000000
C	  36.3012000000	  28.3781000000	  41.2494000000
C	  38.9479000000	  30.3650000000	  43.3336000000
C	  36.6119000000	  33.4471000000	  42.3188000000
H	  36.8191000000	  27.9351000000	  42.0915000000
H	  35.4697000000	  27.6812000000	  41.2410000000
H	  36.8201000000	  28.4432000000	  40.2045000000
H	  39.2640000000	  29.7499000000	  42.4715000000
H	  39.5101000000	  31.3239000000	  43.4722000000
H	  39.1821000000	  29.6418000000	  44.1541000000
H	  36.7003000000	  34.0242000000	  41.3959000000
H	  35.9362000000	  34.0646000000	  42.8763000000
H	  37.5244000000	  33.4382000000	  42.8944000000
P	  35.6906000000	  29.4273000000	  37.3305000000
O	  34.4669000000	  29.4861000000	  38.4854000000
O	  34.9741000000	  30.1965000000	  36.1326000000
O	  35.6761000000	  27.8659000000	  36.8108000000
O	  37.0025000000	  30.0519000000	  37.7638000000
C	  34.1535000000	  30.6271000000	  39.1756000000
C	  35.7093000000	  30.8071000000	  35.1363000000
C	  35.8795000000	  26.7834000000	  37.7564000000
H	  35.1391000000	  30.8954000000	  39.5094000000
H	  33.7912000000	  31.4378000000	  38.4688000000
H	  33.6674000000	  30.3810000000	  40.1560000000
H	  36.4332000000	  31.4687000000	  35.6848000000
H	  36.2241000000	  30.2708000000	  34.4011000000
H	  35.0684000000	  31.4889000000	  34.5408000000
H	  35.2425000000	  26.9952000000	  38.6488000000
H	  35.6355000000	  25.8090000000	  37.4517000000
H	  36.9429000000	  26.6277000000	  38.0035000000
N	  37.7362000000	  34.0125000000	  35.7943000000
S	  37.9233000000	  33.9883000000	  37.3956000000
O	  38.4209000000	  32.7928000000	  38.0035000000
O	  38.4323000000	  35.2814000000	  37.9057000000
C	  36.1471000000	  33.9353000000	  37.8642000000
F	  35.8760000000	  34.5493000000	  38.9470000000
F	  35.7503000000	  32.6996000000	  38.0209000000
F	  35.2574000000	  34.4658000000	  36.9816000000
S	  38.1641000000	  35.1634000000	  34.7207000000
O	  39.5589000000	  35.6121000000	  34.6694000000
O	  37.1305000000	  36.1752000000	  34.4053000000
C	  38.1121000000	  33.9454000000	  33.3397000000
F	  36.9785000000	  33.2543000000	  33.3530000000
F	  38.1315000000	  34.6271000000	  32.1693000000
F	  39.1324000000	  33.0804000000	  33.3755000000
