41

Li	  10.1071000000	  57.6431000000	  27.7821000000
P	  11.7619000000	  55.1813000000	  26.4131000000
O	  11.0672000000	  54.5991000000	  25.1521000000
O	  13.2832000000	  55.2701000000	  25.9441000000
O	  11.6452000000	  53.8511000000	  27.3574000000
O	  11.1399000000	  56.4405000000	  26.9323000000
C	  10.1540000000	  55.4937000000	  24.4685000000
C	  14.2214000000	  55.5793000000	  26.9076000000
C	  10.4358000000	  53.3969000000	  27.7039000000
H	   9.4844600000	  55.0251000000	  23.6570000000
H	   9.5713700000	  56.1626000000	  25.1364000000
H	  10.7552000000	  56.1819000000	  23.9821000000
H	  14.8374000000	  54.7745000000	  27.0701000000
H	  14.7370000000	  56.5611000000	  26.7688000000
H	  13.7439000000	  55.6938000000	  27.9075000000
H	  10.1299000000	  54.1661000000	  28.3759000000
H	   9.8118900000	  53.2723000000	  26.8315000000
H	  10.3791000000	  52.5483000000	  28.3231000000
N	   9.5030300000	  60.9361245824	  25.5243000000
S	   9.7105000000	  60.7343245824	  27.0700000000
O	   8.5624400000	  61.1940145824	  27.8253000000
O	  10.2845000000	  59.5049945824	  27.4425000000
C	  10.9894000000	  62.0383645824	  27.3847000000
F	  10.6685000000	  63.3401845824	  27.0883000000
F	  12.1357000000	  61.7700345824	  26.7356000000
F	  11.2645000000	  62.1404645824	  28.6823000000
S	   8.6661300000	  60.1045645824	  24.5513000000
O	   8.0947500000	  60.8358345824	  23.5050000000
O	   7.8741300000	  59.0752000000	  25.1410000000
C	   9.9238300000	  59.2858275824	  23.4448000000
F	   9.3458200000	  58.2812000000	  22.7967000000
F	  10.5008000000	  60.0536345824	  22.4942000000
F	  10.8898000000	  58.7724000000	  24.1328000000
S	   8.2723800000	  57.4585000000	  28.8388000000
S	   9.6015800000	  58.0667000000	  30.3199000000
S	  11.5623000000	  57.3608000000	  29.7539000000
S	  15.0967000000	  61.3028945824	  29.3773000000
S	  17.1565000000	  61.1722945824	  29.3368000000
S	  17.8962000000	  62.6863245824	  28.0092000000
S	  14.0008000000	  59.7176345824	  30.1551000000
S	  12.7355000000	  58.7492000000	  28.7637000000
