46

Li	  47.4347000000	   7.6140500000	  54.0018000000
O	  47.9323000000	   3.6737400000	  53.8201000000
O	  47.9716000000	   5.8762500000	  54.2316000000
C	  48.3400000000	   3.7371500000	  55.1542000000
C	  48.3464000000	   5.2557400000	  55.4242000000
C	  48.2656000000	   4.8645700000	  53.2431000000
H	  47.6131000000	   3.2002800000	  55.7723000000
H	  49.3252000000	   3.1965100000	  55.3471000000
H	  47.5410000000	   5.4370000000	  56.1004000000
H	  49.2835000000	   5.5127600000	  55.8520000000
H	  49.3585000000	   4.7611300000	  52.9251000000
H	  47.7128000000	   5.0232900000	  52.3532000000
P	  44.3605000000	   7.3765000000	  54.8925000000
O	  43.5392000000	   8.5828800000	  54.1551000000
O	  43.7649000000	   6.0444200000	  54.1407000000
O	  43.5058000000	   7.2060800000	  56.2886000000
O	  45.8339000000	   7.4755600000	  54.9920000000
C	  44.0820000000	   9.1126400000	  52.9875000000
C	  44.4994000000	   5.4463200000	  53.1169000000
C	  43.5346000000	   8.2962600000	  57.2079000000
H	  45.1032000000	   9.3791600000	  53.1563000000
H	  44.0500000000	   8.3406200000	  52.1587000000
H	  43.4152000000	   9.9488800000	  52.5995000000
H	  44.4280000000	   4.3590400000	  53.2573000000
H	  44.1417000000	   5.9022200000	  52.1970000000
H	  45.5113000000	   5.5601100000	  53.0835000000
H	  44.4379000000	   8.9568400000	  57.0858000000
H	  42.6848000000	   8.9901300000	  56.8708000000
H	  43.2232000000	   7.9822000000	  58.2372000000
P	  49.6572000000	   9.3146000000	  55.6051000000
O	  49.2856000000	   8.3299900000	  56.8805000000
O	  48.3432000000	   9.2983100000	  54.6920000000
O	  50.6123000000	   8.3816200000	  54.7252000000
O	  50.1528000000	  10.6679000000	  56.0689000000
C	  48.2659000000	   8.7168500000	  57.7590000000
C	  48.3323000000	  10.2781000000	  53.6670000000
C	  51.8129000000	   7.8870600000	  55.2808000000
H	  47.6574000000	   7.8561200000	  57.8141000000
H	  48.7005000000	   9.0040600000	  58.7451000000
H	  47.6203000000	   9.4908000000	  57.3828000000
H	  47.9536000000	  11.3383000000	  54.0124000000
H	  49.2904000000	  10.5482000000	  53.1222000000
H	  47.5490000000	   9.9915700000	  52.9323000000
H	  51.9754000000	   6.8947400000	  54.8491000000
H	  52.6394000000	   8.5171600000	  54.9273000000
H	  51.9451000000	   7.7840500000	  56.4207000000
