60

Li	  48.8281000000	   8.9464800000	  37.7447000000
P	  51.1716000000	   9.7722800000	  35.6623000000
O	  51.8236000000	  11.2124000000	  35.7812000000
O	  52.2593000000	   8.8868900000	  36.4570000000
O	  51.3738000000	   9.3932900000	  34.0764000000
O	  49.7510000000	   9.6866300000	  36.2080000000
C	  51.1140000000	  12.2454000000	  35.1375000000
C	  52.2245000000	   7.4072100000	  36.4221000000
C	  50.7085000000	   8.2696600000	  33.4935000000
H	  50.9160000000	  11.9245000000	  34.0127000000
H	  50.1714000000	  12.4002000000	  35.7013000000
H	  51.6928000000	  13.1080000000	  35.1391000000
H	  52.7397000000	   7.0699400000	  35.5117000000
H	  52.8121000000	   6.9530800000	  37.1934000000
H	  51.2413000000	   7.0324000000	  36.5728000000
H	  50.5216000000	   8.2604300000	  32.3928000000
H	  51.3227000000	   7.3559500000	  33.4704000000
H	  49.7626000000	   8.0387500000	  34.0331000000
P	  47.6655000000	   6.4177400000	  36.4866000000
O	  46.7753000000	   5.6483200000	  37.6119000000
O	  46.5783000000	   7.2723800000	  35.6375000000
O	  48.0305000000	   5.2022900000	  35.5055000000
O	  48.7942000000	   7.1464400000	  37.1042000000
C	  47.3276000000	   4.6179600000	  38.4581000000
C	  45.3171000000	   6.5768100000	  35.3355000000
C	  49.1151000000	   5.2249000000	  34.6029000000
H	  48.2456000000	   4.9710900000	  38.8302000000
H	  46.6754000000	   4.5274400000	  39.2376000000
H	  47.4973000000	   3.6863900000	  37.9003000000
H	  44.9627000000	   7.0247500000	  34.3632000000
H	  45.4547000000	   5.5284500000	  35.1124000000
H	  44.5728000000	   6.6926200000	  36.1597000000
H	  49.6102000000	   4.2964300000	  34.6646000000
H	  48.9301000000	   5.3582200000	  33.5651000000
H	  49.8350000000	   5.8670600000	  34.9975000000
P	  46.3873000000	  10.7480000000	  38.9581000000
O	  46.3985000000	  12.2484000000	  38.3986000000
O	  44.8165000000	  10.3502000000	  38.8818000000
O	  46.6539000000	  10.9127000000	  40.5327000000
O	  47.2525000000	   9.8586100000	  38.1528000000
C	  46.1563000000	  12.4227000000	  37.0625000000
C	  44.4428000000	   9.3569800000	  37.8946000000
C	  46.5424000000	   9.8243500000	  41.4061000000
H	  46.4329000000	  13.4328000000	  36.9096000000
H	  46.7087000000	  11.7499000000	  36.3928000000
H	  45.1128000000	  12.3735000000	  36.8719000000
H	  43.8047000000	   9.7980500000	  37.1414000000
H	  45.2692000000	   8.7464900000	  37.4969000000
H	  43.8126000000	   8.6506200000	  38.4137000000
H	  45.6814000000	   9.1771300000	  41.1205000000
H	  47.4740000000	   9.2851700000	  41.6718000000
H	  46.1382000000	  10.2389000000	  42.3366000000
S	  50.2451000000	   9.2167700000	  39.4014000000
S	  50.1398000000	  11.0208000000	  40.4861000000
S	  49.1475000000	  12.6226000000	  39.4794000000
S	  53.0246000000	  15.9236000000	  38.9851000000
S	  53.8785000000	  15.9494000000	  40.8686000000
S	  55.8276000000	  16.8571000000	  40.7173000000
S	  50.9725000000	  15.5558000000	  38.9229000000
S	  50.3240000000	  13.7862000000	  38.0934000000
