29

Li	   6.0185900000	  18.2046000000	  13.9424000000
O	   6.9452600000	  21.9558000000	  12.3672000000
O	   6.3293700000	  19.8743000000	  13.1008000000
C	   5.8308800000	  21.5313000000	  11.6229000000
C	   5.8050200000	  20.0431000000	  11.8132000000
C	   7.1469300000	  20.9876000000	  13.3077000000
H	   5.0258600000	  22.1357000000	  12.0004000000
H	   5.9114700000	  21.7403000000	  10.5557000000
H	   4.8702400000	  19.6347000000	  11.7782000000
H	   6.4384300000	  19.5229000000	  11.0717000000
H	   8.2003300000	  20.7790000000	  13.3477000000
H	   6.8661500000	  21.1979000000	  14.3468000000
P	   3.7846400000	  16.6429000000	  12.0907000000
O	   3.6626100000	  16.7601000000	  10.4951000000
O	   3.5486300000	  15.0321000000	  12.3683000000
O	   2.4594500000	  17.3454000000	  12.6670000000
O	   4.9689000000	  17.1982000000	  12.7136000000
C	   4.7153300000	  16.2634000000	   9.6238800000
C	   3.8546000000	  14.5993000000	  13.7224000000
C	   2.0029600000	  18.6150000000	  12.2293000000
H	   4.5108200000	  15.2149000000	   9.2973800000
H	   4.8838000000	  16.7792000000	   8.6907600000
H	   5.6563900000	  16.2939000000	  10.1934000000
H	   4.4487000000	  15.2161000000	  14.4277000000
H	   2.9340100000	  14.5437000000	  14.2310000000
H	   4.2914900000	  13.6083000000	  13.6900000000
H	   2.7497200000	  19.3053000000	  12.6019000000
H	   2.0199900000	  18.6515000000	  11.1295000000
H	   0.9882530000	  18.9383000000	  12.6682000000
