40

Li	  52.2304000000	  57.0119000000	  17.1398000000
O	  53.5169000000	  54.6498000000	  20.0927000000
O	  52.4616000000	  56.2558000000	  18.9132000000
C	  52.2022000000	  54.2495000000	  19.9444000000
C	  51.4614000000	  55.5151000000	  19.6085000000
C	  53.6512000000	  55.8828000000	  19.4799000000
H	  52.1291000000	  53.6011000000	  19.0370000000
H	  51.8060000000	  53.6120000000	  20.7603000000
H	  50.5212000000	  55.4094000000	  19.0357000000
H	  51.1543000000	  55.9645000000	  20.5606000000
H	  53.8660000000	  56.5611000000	  20.3163000000
H	  54.4889000000	  55.7482000000	  18.7433000000
O	  51.5827000000	  55.3191000000	  16.3583000000
O	  51.3179000000	  54.2184000000	  14.4697000000
C	  50.1501000000	  55.3016000000	  16.1219000000
C	  50.2172000000	  55.0858000000	  14.6524000000
C	  52.0393000000	  54.2901000000	  15.6305000000
H	  49.7288000000	  54.4047000000	  16.6041000000
H	  49.6445000000	  56.1881000000	  16.3603000000
H	  49.4098000000	  54.6620000000	  14.2132000000
H	  50.4457000000	  56.0474000000	  14.2098000000
H	  53.1231000000	  54.2713000000	  15.5603000000
H	  51.6926000000	  53.4466000000	  16.2613000000
P	  50.2677000000	  59.3290345824	  17.9089000000
O	  48.8682000000	  59.5071545824	  17.0952000000
O	  49.8310000000	  59.8615945824	  19.4048000000
O	  51.0947000000	  60.5954645824	  17.4259000000
O	  50.9842000000	  58.0230000000	  17.7964000000
C	  48.7655000000	  59.0864000000	  15.7253000000
C	  49.1587000000	  59.0229000000	  20.3234000000
C	  52.3905000000	  60.8871445824	  17.9114000000
H	  48.4437000000	  59.8344345824	  15.0589000000
H	  49.8263000000	  58.8259000000	  15.4242000000
H	  48.1665000000	  58.1755000000	  15.5671000000
H	  49.7679000000	  58.7645000000	  21.1845000000
H	  48.2041000000	  59.4215745824	  20.6373000000
H	  48.8790000000	  58.1365000000	  19.7684000000
H	  52.3707000000	  61.5751345824	  18.7918000000
H	  52.8190000000	  59.9478845824	  18.3277000000
H	  52.9802000000	  61.3304245824	  17.1146000000
