69

Li	  25.7092000000	  40.0250000000	  45.9365000000
P	  26.8098000000	  43.2304000000	  45.4048000000
O	  28.2371000000	  42.6453000000	  45.7313000000
O	  25.8391000000	  41.9530000000	  45.7238000000
O	  26.8460000000	  43.1580000000	  43.7773000000
O	  26.4306000000	  44.4846000000	  46.0732000000
C	  29.4219000000	  43.3957000000	  45.6481000000
C	  24.4621000000	  42.2907000000	  45.5175000000
C	  27.0136000000	  44.3482000000	  43.0388000000
H	  30.1089000000	  42.7968000000	  45.0491000000
H	  29.1488000000	  44.3637000000	  45.1575000000
H	  29.8679000000	  43.4379000000	  46.6619000000
H	  24.3381000000	  43.1701000000	  44.9265000000
H	  24.1779000000	  41.4596000000	  44.9087000000
H	  23.8364000000	  42.3615000000	  46.3999000000
H	  26.1282000000	  44.5015000000	  42.3691000000
H	  26.9797000000	  45.1775000000	  43.6859000000
H	  27.9400000000	  44.3627000000	  42.4344000000
P	  22.8243000000	  38.4741000000	  46.4729000000
O	  22.5597000000	  37.5571000000	  45.1713000000
O	  22.8391000000	  37.2422000000	  47.6039000000
O	  21.3947000000	  39.1764000000	  46.7041000000
O	  24.0277000000	  39.3229000000	  46.3398000000
C	  22.7858000000	  38.1876000000	  43.9192000000
C	  24.0300000000	  36.7107000000	  48.0312000000
C	  21.3442000000	  40.2598000000	  47.7014000000
H	  22.4730000000	  37.4962000000	  43.1521000000
H	  22.2642000000	  39.1825000000	  43.8874000000
H	  23.8538000000	  38.3206000000	  43.8507000000
H	  24.6580000000	  36.2960000000	  47.2140000000
H	  24.4935000000	  37.4153000000	  48.7175000000
H	  23.7824000000	  35.9246000000	  48.7027000000
H	  22.3087000000	  40.7562000000	  47.9205000000
H	  20.5595000000	  40.9344000000	  47.4031000000
H	  21.0945000000	  39.8504000000	  48.6480000000
P	  27.0592000000	  38.3359000000	  43.3911000000
O	  25.9387000000	  37.4544000000	  42.6096000000
O	  28.0295000000	  38.8916000000	  42.2253000000
O	  27.9063000000	  37.1796000000	  44.1044000000
O	  26.5994000000	  39.3169000000	  44.4378000000
C	  26.2936000000	  36.5611000000	  41.6152000000
C	  28.6343000000	  40.1259000000	  42.3280000000
C	  27.3947000000	  36.7689000000	  45.3670000000
H	  26.9905000000	  35.8072000000	  42.0900000000
H	  25.5011000000	  35.9411000000	  41.2295000000
H	  26.8604000000	  36.8776000000	  40.7573000000
H	  29.6910000000	  39.9347000000	  42.0558000000
H	  28.3085000000	  40.8474000000	  41.5870000000
H	  28.5299000000	  40.4037000000	  43.3467000000
H	  26.3392000000	  36.7759000000	  45.1905000000
H	  27.5951000000	  35.6916000000	  45.4585000000
H	  27.7931000000	  37.3403000000	  46.2007000000
P	  27.6289000000	  39.2391000000	  48.8745000000
O	  27.9511000000	  40.6494000000	  49.6878000000
O	  27.2749000000	  38.2380000000	  50.0630000000
O	  28.9856000000	  38.7131000000	  48.3259000000
O	  26.5414000000	  39.4269000000	  47.8675000000
C	  28.1304000000	  41.7860000000	  48.8693000000
C	  26.9498000000	  36.8679000000	  49.8008000000
C	  29.4936000000	  39.1782000000	  47.0579000000
H	  27.1574000000	  42.1236000000	  48.4790000000
H	  28.4870000000	  42.6303000000	  49.4975000000
H	  28.8517000000	  41.7156000000	  48.0337000000
H	  27.0982000000	  36.6521000000	  48.7330000000
H	  27.6723000000	  36.1867000000	  50.3596000000
H	  25.9376000000	  36.5910000000	  50.1910000000
H	  30.3344000000	  39.8981000000	  47.2740000000
H	  29.8993000000	  38.3572000000	  46.4830000000
H	  28.8175000000	  39.7929000000	  46.4914000000
