35

Li	  22.9037000000	  44.0577000000	  57.2015000000
O	  24.3697000000	  43.6281000000	  58.2113000000
O	  26.4727000000	  43.3954000000	  58.8502000000
C	  24.7411000000	  42.2539000000	  58.1048000000
C	  26.2076000000	  42.3661000000	  57.9868000000
C	  25.3229000000	  44.1235000000	  59.1177000000
H	  24.4187000000	  41.7291000000	  58.9846000000
H	  24.2515000000	  41.7390000000	  57.2428000000
H	  26.9185000000	  41.5291000000	  58.0492000000
H	  26.5033000000	  42.6605000000	  56.9677000000
H	  25.5635000000	  45.1669000000	  59.1407000000
H	  24.9719000000	  43.8766000000	  60.0893753266
N	  22.0126000000	  47.1049000000	  55.2686000000
S	  23.2641000000	  46.3375000000	  54.8059000000
O	  24.3773000000	  47.1671000000	  54.3426000000
O	  23.4934000000	  45.1131000000	  55.5287000000
C	  22.5565000000	  45.7061000000	  53.2108000000
F	  23.4851000000	  45.0348000000	  52.5617000000
F	  22.1770000000	  46.6365000000	  52.3951000000
F	  21.5664000000	  44.9060000000	  53.4717000000
S	  21.7416000000	  48.6269000000	  55.4921000000
O	  22.2615000000	  49.5313000000	  54.5055000000
O	  21.8030000000	  49.0317000000	  56.8587000000
C	  19.9435000000	  48.6905000000	  55.1614000000
F	  19.7159000000	  48.3672000000	  53.9066000000
F	  19.2745000000	  47.8335000000	  55.9163000000
F	  19.3512000000	  49.8842000000	  55.2515000000
S	  21.2088000000	  42.7431000000	  56.8608000000
S	  21.5080000000	  41.6823000000	  58.7131000000
S	  20.9968000000	  42.7867000000	  60.3829153266
S	  21.9138000000	  43.3972000000	  64.8043253266
S	  21.6311000000	  45.4730000000	  65.0376553266
S	  21.1868000000	  45.8582000000	  67.0835453266
S	  20.2766000000	  42.6748000000	  63.7410253266
S	  20.9093000000	  41.5864000000	  62.1303453266
