41

Li	  49.4573000000	   6.0165900000	  33.3744000000
P	  50.2648000000	   5.7465600000	  36.5783000000
O	  50.0368000000	   7.0001000000	  37.5452000000
O	  49.3017000000	   4.6244900000	  37.2083000000
O	  51.7215000000	   5.2185000000	  37.0925000000
O	  50.0853000000	   5.9033800000	  35.1046000000
C	  50.1170000000	   8.3696600000	  37.0119000000
C	  49.1254000000	   3.4390900000	  36.5192000000
C	  52.5289000000	   4.3848600000	  36.3077000000
H	  50.3280000000	   9.1060500000	  37.7723000000
H	  51.0970000000	   8.3189200000	  36.4797000000
H	  49.2363000000	   8.7403900000	  36.4853000000
H	  48.2707000000	   2.9996900000	  36.8926000000
H	  48.9840000000	   3.5305000000	  35.4260000000
H	  50.0623000000	   2.8979700000	  36.7372000000
H	  52.9836000000	   3.5680200000	  36.9152000000
H	  52.0039000000	   3.9729600000	  35.4619000000
H	  53.2583000000	   5.1047200000	  35.9173000000
N	  50.6274000000	   9.4585500000	  33.3740000000
S	  51.6577000000	   8.2521800000	  33.2085000000
O	  52.6517000000	   7.9945300000	  34.2542000000
O	  51.0152000000	   7.0843600000	  32.5830000000
C	  52.7377000000	   8.8331600000	  31.8785000000
F	  52.2987000000	   8.6071400000	  30.6309000000
F	  53.9628000000	   8.3892100000	  31.9397000000
F	  52.8944000000	  10.1577000000	  31.9110000000
S	  49.0639000000	   9.3044400000	  33.5483000000
O	  48.4344000000	  10.4066000000	  34.1749000000
O	  48.5879000000	   7.9812300000	  33.7963000000
C	  48.5472000000	   9.4811000000	  31.8369000000
F	  48.9746000000	   8.4749200000	  31.1357000000
F	  47.2775000000	   9.4204400000	  31.7418000000
F	  48.9905000000	  10.6534000000	  31.2441000000
S	  39.4671000000	  10.7384000000	  31.2436000000
S	  39.1961000000	   8.6598300000	  31.2262000000
S	  40.0366000000	   7.8385100000	  32.9379000000
S	  45.3136000000	   6.8170700000	  31.9603000000
S	  46.4368000000	   5.3504500000	  33.0144000000
S	  48.2600000000	   4.8854700000	  31.9566000000
S	  43.6829000000	   7.6821900000	  32.9958000000
S	  41.8403000000	   6.7542100000	  32.5933000000
