18

Li	  10.2699000000	  19.7549000000	  14.6794000000
P	  12.9686000000	  21.6239000000	  14.7807000000
O	  13.2397000000	  22.9820000000	  13.9697000000
O	  13.2398000000	  22.1500000000	  16.3311000000
O	  14.2287000000	  20.7398000000	  14.5140000000
O	  11.6849000000	  20.8928000000	  14.6145000000
C	  12.9775000000	  23.1361000000	  12.5251000000
C	  13.0460000000	  21.2162000000	  17.3693000000
C	  14.3116000000	  19.9447000000	  13.3542000000
H	  12.2164000000	  22.4262000000	  12.2343000000
H	  12.6346000000	  24.1138000000	  12.2581000000
H	  13.9216000000	  22.8398000000	  12.0510000000
H	  13.0810000000	  21.6806000000	  18.3348000000
H	  12.0557000000	  20.7007000000	  17.2618000000
H	  13.8279000000	  20.3493000000	  17.4345000000
H	  13.4248000000	  19.5153000000	  13.0651000000
H	  14.7140000000	  20.5073000000	  12.4879000000
H	  14.9867000000	  19.1176000000	  13.6139000000
