61

Li	  56.0659000000	  52.5726000000	  32.6652000000
O	  53.9794000000	  53.1383000000	  34.9727000000
O	  55.7171000000	  53.9432000000	  33.8674000000
C	  53.4863000000	  54.2817000000	  34.2705000000
C	  54.6185000000	  54.7083000000	  33.3412000000
C	  55.2838000000	  53.4514000000	  35.0889000000
H	  52.6511000000	  54.0178000000	  33.6681000000
H	  53.0268000000	  54.9969000000	  34.8843000000
H	  54.4546000000	  54.5633000000	  32.3344000000
H	  54.6559000000	  55.8278000000	  33.4660000000
H	  55.4511000000	  54.3093000000	  35.8465000000
H	  55.9970000000	  52.6570000000	  35.2867000000
P	  58.8680000000	  51.2397000000	  33.9258000000
O	  59.7753111158	  50.3902000000	  32.9251000000
O	  60.0322311158	  52.1038000000	  34.5927000000
O	  58.5502000000	  50.1936000000	  35.1628000000
O	  57.6624000000	  51.9049000000	  33.3905000000
C	  59.0740000000	  49.5467000000	  32.0434000000
C	  59.7865511158	  53.4799000000	  34.8160000000
C	  57.7759000000	  49.0406000000	  35.0197000000
H	  59.8332911158	  48.8497000000	  31.6854000000
H	  58.1666000000	  48.9921000000	  32.2732000000
H	  58.7271000000	  50.1675000000	  31.2363000000
H	  60.6807211158	  53.9095000000	  35.1363000000
H	  59.5301211158	  53.9977000000	  33.8561000000
H	  59.0387000000	  53.5565000000	  35.5840000000
H	  56.8410000000	  49.4278000000	  34.5970000000
H	  58.2713000000	  48.2840000000	  34.3465000000
H	  57.6996000000	  48.5580000000	  35.9830000000
P	  53.9639000000	  50.3622000000	  31.5061000000
O	  53.1985000000	  50.5985000000	  30.0663000000
O	  54.6756000000	  48.9637000000	  31.2075000000
O	  52.7857000000	  49.8145000000	  32.5421000000
O	  54.8643000000	  51.4656000000	  32.0470000000
C	  53.4971000000	  51.6296000000	  29.1878000000
C	  55.7318000000	  48.9344000000	  30.3075000000
C	  51.8352000000	  50.7840000000	  33.0337000000
H	  53.6201000000	  52.5215000000	  29.8149000000
H	  54.4125000000	  51.4723000000	  28.7948000000
H	  52.8807000000	  51.9362000000	  28.3452000000
H	  56.6240000000	  48.4589000000	  30.8383000000
H	  55.4666000000	  48.3014000000	  29.4299000000
H	  56.0537000000	  49.9190000000	  29.9445000000
H	  52.2700000000	  51.2397000000	  33.9196000000
H	  51.5294000000	  51.5764000000	  32.3548000000
H	  50.9527000000	  50.3319000000	  33.5086000000
N	  56.9484000000	  55.0084000000	  28.8946000000
S	  57.2318000000	  53.7174000000	  29.7328000000
O	  56.5284000000	  53.8231000000	  30.9470000000
O	  57.1593000000	  52.4567000000	  29.0626000000
C	  58.9708000000	  53.8972000000	  30.2081000000
F	  59.1251000000	  54.8904000000	  31.1245000000
F	  59.6626811158	  54.2344000000	  29.1509000000
F	  59.4637211158	  52.7600000000	  30.7415000000
S	  55.6073000000	  55.6911000000	  28.5425000000
O	  54.4469000000	  54.9777000000	  28.9188000000
O	  55.5374000000	  56.4499000000	  27.3410000000
C	  55.6109000000	  57.0264000000	  29.7531000000
F	  54.6595000000	  57.9049000000	  29.5149000000
F	  55.4035000000	  56.6400000000	  31.0359000000
F	  56.7835000000	  57.6800000000	  29.7254000000
