63

Li	  16.1920000000	  27.9161000000	  39.0528000000
O	  13.0302000000	  28.0522000000	  41.1020000000
O	  14.3687000000	  27.2340000000	  39.5380000000
C	  12.3531000000	  28.2507000000	  39.8462000000
C	  13.0761000000	  27.3122000000	  38.9027000000
C	  14.0318000000	  27.0847000000	  40.8552000000
H	  11.3676000000	  28.0446000000	  39.9679000000
H	  12.5230000000	  29.2731000000	  39.5520000000
H	  12.6833000000	  26.2777000000	  38.7315000000
H	  13.1653000000	  27.6518000000	  37.8929000000
H	  14.9165000000	  27.2236000000	  41.5044000000
H	  13.5719000000	  26.0457000000	  41.0806000000
P	  16.0068000000	  31.0125000000	  39.6675000000
O	  15.4926000000	  29.7309000000	  38.8896000000
O	  17.1919000000	  31.5478000000	  38.6892000000
O	  16.7485000000	  30.4767000000	  40.9743000000
O	  14.9007000000	  31.9508000000	  39.8742000000
C	  14.9750000000	  29.9408000000	  37.6068000000
C	  17.4545000000	  32.9299000000	  38.6293000000
C	  16.6463000000	  31.1107000000	  42.1871000000
H	  14.1149000000	  30.5755000000	  37.6478000000
H	  15.6742000000	  30.4907000000	  36.9805000000
H	  14.6850000000	  29.0302000000	  37.1169000000
H	  17.3185000000	  33.3961000000	  39.6523000000
H	  18.5255000000	  33.1134000000	  38.4469000000
H	  16.9036000000	  33.5233000000	  37.9531000000
H	  15.6748000000	  30.8733000000	  42.6006000000
H	  17.4301000000	  30.7353000000	  42.8342000000
H	  16.7013000000	  32.1377000000	  42.1466000000
P	  17.3665000000	  26.0553000000	  36.4931000000
O	  16.2692000000	  25.0027000000	  35.9953000000
O	  18.1047000000	  26.5673000000	  35.1574000000
O	  18.4796000000	  25.1029000000	  37.1421000000
O	  16.8740000000	  27.1268000000	  37.3856000000
C	  15.7279000000	  24.0237000000	  36.9329000000
C	  17.4409000000	  27.2560000000	  34.0944000000
C	  19.8405000000	  25.4402000000	  37.1398000000
H	  15.1795000000	  23.3357000000	  36.2866000000
H	  16.4690000000	  23.3550000000	  37.4587000000
H	  14.9247000000	  24.3723000000	  37.6201000000
H	  16.5758000000	  26.6450000000	  33.7438000000
H	  17.0328000000	  28.2504000000	  34.2742000000
H	  18.1878000000	  27.5032000000	  33.3410000000
H	  20.2931000000	  24.4579000000	  37.2586000000
H	  20.1154000000	  25.8122000000	  36.1601000000
H	  20.1736000000	  26.2061000000	  37.8751000000
P	  18.4751000000	  27.3290000000	  41.4271000000
O	  20.0174000000	  27.9455000000	  41.0911000000
O	  18.0812000000	  27.9959000000	  42.8843000000
O	  18.7659000000	  25.7813000000	  41.8098000000
O	  17.4561000000	  27.5343000000	  40.3467000000
C	  20.0519000000	  29.3015000000	  40.7963000000
C	  16.8292000000	  27.8219000000	  43.3351000000
C	  19.1225000000	  24.8428000000	  40.8613000000
H	  20.3744000000	  29.8365000000	  41.6696000000
H	  20.7834000000	  29.4293000000	  39.9922000000
H	  19.0532000000	  29.6682000000	  40.4745000000
H	  16.5641000000	  26.8343000000	  43.2656000000
H	  16.8865000000	  28.0871000000	  44.3661000000
H	  16.1136000000	  28.5268000000	  42.8772000000
H	  19.5750000000	  23.9585000000	  41.3433000000
H	  18.3790000000	  24.5064000000	  40.1156000000
H	  19.9622000000	  25.1630000000	  40.2971000000
