54

Li	  42.7164000000	  43.2758000000	  37.5368000000
O	  41.6389000000	  44.9281000000	  38.3531000000
O	  39.5957000000	  45.9621000000	  38.3846000000
C	  41.3384000000	  45.1819000000	  39.7379000000
C	  39.8902000000	  45.4490000000	  39.6950000000
C	  40.6841000000	  45.5773000000	  37.5994000000
H	  41.5711000000	  44.2865000000	  40.3038000000
H	  41.8629000000	  46.0974000000	  40.0558000000
H	  39.6032000000	  44.4117000000	  39.7035000000
H	  39.5305000000	  45.9426000000	  40.4838000000
H	  41.2295000000	  46.4224000000	  37.1136000000
H	  40.3272000000	  44.8950000000	  36.7846000000
P	  45.3648000000	  42.7295000000	  39.4548000000
O	  46.3844000000	  41.5904000000	  38.8265000000
O	  46.3285000000	  44.0355000000	  39.6679000000
O	  45.0730000000	  42.2000000000	  40.9085000000
O	  44.2010000000	  43.1290000000	  38.5843000000
C	  46.8279000000	  41.6945000000	  37.5024000000
C	  45.7086000000	  45.3020000000	  40.1001000000
C	  44.0987000000	  42.7622000000	  41.6666000000
H	  47.9392000000	  41.5766000000	  37.4402000000
H	  46.3243000000	  40.9885000000	  36.9159000000
H	  46.6961000000	  42.7503000000	  37.0891000000
H	  45.0423000000	  45.6649000000	  39.3497000000
H	  45.0277000000	  45.0721000000	  40.9592000000
H	  46.4431000000	  46.0336000000	  40.3771000000
H	  44.4886000000	  43.1762000000	  42.5289000000
H	  43.4876000000	  43.5356000000	  41.1486000000
H	  43.3357000000	  41.9577000000	  41.9522000000
P	  40.8772000000	  40.6241000000	  37.5931000000
O	  40.5760000000	  39.6630000000	  38.8732000000
O	  39.4407000000	  40.9619000000	  37.0748000000
O	  41.3970000000	  39.5570000000	  36.5486000000
O	  41.7808000000	  41.8122000000	  37.9051000000
C	  40.7010000000	  40.1459000000	  40.1843000000
C	  38.7682000000	  42.1077000000	  37.4717000000
C	  42.7920000000	  39.2554000000	  36.6189000000
H	  41.6920000000	  39.9250000000	  40.6028000000
H	  40.4527000000	  41.2014000000	  40.2213000000
H	  40.0635000000	  39.6435000000	  40.8185000000
H	  38.8952000000	  42.9769000000	  36.7659000000
H	  37.7282000000	  41.7757000000	  37.4887000000
H	  39.1327000000	  42.4085000000	  38.4370000000
H	  43.1265000000	  38.4365000000	  35.9252000000
H	  43.3117000000	  40.1584000000	  36.2285000000
H	  42.9859000000	  38.9676000000	  37.6090000000
S	  43.3995000000	  43.1924000000	  35.5810000000
S	  42.0253000000	  42.3819000000	  34.2519000000
S	  40.2245000000	  43.3599000000	  34.3661000000
S	  36.5593000000	  45.0938000000	  31.4198000000
S	  36.3940000000	  46.0831000000	  29.5745000000
S	  36.3908000000	  48.2037000000	  29.6113000000
S	  38.3387000000	  44.1097000000	  31.4617000000
S	  39.7073000000	  44.8667000000	  32.9409000000
