52

Li	  54.4883000000	  56.9940000000	  10.6064000000
P	  53.5390000000	  53.9784000000	  11.5568000000
O	  52.3935000000	  53.5542000000	  10.5142000000
O	  54.3410000000	  52.5886000000	  11.7484000000
O	  52.6641000000	  54.1834000000	  12.9021000000
O	  54.3165000000	  55.1514000000	  10.9875000000
C	  52.5310000000	  53.8102000000	   9.0844600000
C	  55.0941000000	  51.9465000000	  10.7346000000
C	  51.7941000000	  55.2400000000	  13.0162000000
H	  52.4337000000	  54.8834000000	   8.7865600000
H	  53.4091000000	  53.4101000000	   8.6243800000
H	  51.6545000000	  53.3407000000	   8.5806100000
H	  54.5073000000	  51.8330000000	   9.8147600000
H	  55.9516000000	  52.7091000000	  10.5639000000
H	  55.4456000000	  51.0185000000	  11.0844000000
H	  51.2273000000	  55.2278000000	  13.8859000000
H	  52.3694000000	  56.1798000000	  13.0400000000
H	  51.2171000000	  55.4485000000	  12.1412000000
P	  53.5265000000	  58.3985000000	   7.8840500000
O	  53.9094000000	  59.9512545824	   7.7004000000
O	  54.6790000000	  57.6890000000	   7.0131600000
O	  52.2624000000	  58.2755000000	   6.9840300000
O	  53.4045000000	  57.8179000000	   9.2140800000
C	  55.0793000000	  60.4310845824	   8.3530900000
C	  54.6712000000	  56.2640000000	   6.8141300000
C	  51.0398000000	  58.6630000000	   7.4507400000
H	  55.9880000000	  60.0521545824	   7.8170000000
H	  55.0848000000	  61.4564445824	   8.3317600000
H	  55.1220000000	  60.0504645824	   9.3824800000
H	  55.5211000000	  55.8834000000	   7.4015800000
H	  53.7741000000	  55.7531000000	   7.1770400000
H	  54.8065000000	  56.0063000000	   5.7705400000
H	  50.6402000000	  58.0558000000	   8.2649100000
H	  51.2015000000	  59.6860345824	   7.8651400000
H	  50.1751000000	  58.7403000000	   6.7505100000
P	  57.6407000000	  57.4407000000	   9.6928300000
O	  58.5395000000	  56.2521000000	   9.0506400000
O	  57.8384000000	  58.7012000000	   8.6703000000
O	  58.5221000000	  57.8746000000	  10.9590000000
O	  56.2479000000	  57.0830000000	  10.1133000000
C	  58.0573000000	  54.9619000000	   9.2696100000
C	  59.1541041158	  59.1946045824	   8.4871800000
C	  58.4874000000	  57.1456000000	  12.2296000000
H	  58.5256000000	  54.5029000000	  10.1173000000
H	  56.9494000000	  55.0677000000	   9.1933000000
H	  58.3938000000	  54.3934000000	   8.4290100000
H	  59.3290701158	  59.4226945824	   7.4286000000
H	  59.1088000000	  60.1479945824	   9.0685900000
H	  59.9607611158	  58.6114000000	   8.9719300000
H	  59.3278951158	  57.2100000000	  12.9660000000
H	  57.5760000000	  57.4316000000	  12.6790000000
H	  58.3685000000	  56.1130000000	  12.0289000000
