50

Li	  40.5122000000	  31.5374000000	  19.8405000000
P	  38.0950000000	  31.5066000000	  21.8153000000
O	  36.5667000000	  31.6790000000	  21.4082000000
O	  37.8998000000	  30.5418000000	  23.1638000000
O	  38.5878000000	  32.8913000000	  22.4681000000
O	  38.9223000000	  30.9823000000	  20.6912000000
C	  35.8156000000	  30.5519000000	  20.9671000000
C	  39.0547000000	  30.0903000000	  23.7727000000
C	  37.7946000000	  33.6601000000	  23.2345000000
H	  35.2623000000	  30.9078000000	  20.1114000000
H	  36.5278000000	  29.8196000000	  20.6711000000
H	  35.1633000000	  30.2069000000	  21.7170000000
H	  39.9434000000	  30.8084000000	  23.6566000000
H	  38.8583000000	  29.9398000000	  24.8136000000
H	  39.3286000000	  29.1406000000	  23.3399000000
H	  36.8773000000	  33.8519000000	  22.7800000000
H	  37.7356000000	  33.2304000000	  24.2317000000
H	  38.4356000000	  34.5740000000	  23.2715000000
P	  39.8562000000	  34.6679000000	  19.3626000000
O	  40.7501000000	  35.3605000000	  18.2214000000
O	  38.3276000000	  34.7560000000	  18.7806000000
O	  39.9115000000	  35.8722000000	  20.4735000000
O	  40.2798000000	  33.2878000000	  19.8473000000
C	  42.1172000000	  35.0044000000	  17.9552000000
C	  37.6179000000	  33.5176000000	  18.7186000000
C	  41.1562000000	  35.9869000000	  21.1780000000
H	  42.4741000000	  34.4172000000	  18.7977000000
H	  42.2247000000	  34.2298000000	  17.2139000000
H	  42.8108000000	  35.6923000000	  17.5665000000
H	  38.2785000000	  32.7563000000	  18.1735000000
H	  37.3369000000	  33.1324000000	  19.6890000000
H	  36.6735000000	  33.6377000000	  18.1874000000
H	  41.0858000000	  36.8874000000	  21.7421000000
H	  41.3482000000	  35.3002000000	  21.9986000000
H	  42.0604000000	  36.0210000000	  20.5535000000
N	  43.2446000000	  29.5846000000	  19.9534000000
S	  42.8670000000	  30.3316000000	  18.6729000000
O	  41.4826000000	  30.6986000000	  18.4050000000
O	  43.8623000000	  31.2547000000	  18.1611000000
C	  43.1119000000	  28.9345000000	  17.5471000000
F	  42.8835000000	  29.2592000000	  16.2398000000
F	  42.3095000000	  27.9146000000	  17.7619000000
F	  44.3152000000	  28.3374000000	  17.6735000000
S	  42.6288000000	  29.7011000000	  21.4070000000
O	  41.5530000000	  30.6311000000	  21.5077000000
O	  43.6157000000	  29.6445000000	  22.3983000000
C	  41.8971000000	  28.0048000000	  21.6609000000
F	  41.1788000000	  27.8527000000	  22.8080000000
F	  41.1902000000	  27.6320000000	  20.6162000000
F	  42.8171000000	  27.0490000000	  21.8236000000
