59

Li	  28.6571000000	  12.8772000000	  10.1232000000
O	  30.0704000000	   9.3721100000	  11.7106000000
O	  28.9974000000	  11.2209000000	  10.8263000000
C	  30.8023000000	   9.8601100000	  10.6058000000
C	  29.8102000000	  10.6816000000	   9.7991400000
C	  28.9104000000	  10.1689000000	  11.8262000000
H	  31.7506000000	  10.3952000000	  10.9745000000
H	  31.1177000000	   8.9699700000	  10.0510000000
H	  30.3579000000	  11.5479000000	   9.3726400000
H	  29.3086000000	  10.1098000000	   9.0374700000
H	  27.9484000000	   9.6385400000	  11.5310000000
H	  28.7722000000	  10.5948000000	  12.8356000000
P	  25.5538000000	  13.7281000000	  10.5590000000
O	  24.7840000000	  12.6848000000	   9.5954600000
O	  24.8621000000	  13.5721000000	  11.9678000000
O	  24.9303000000	  15.1465000000	  10.1368000000
O	  27.0279000000	  13.5706000000	  10.5394000000
C	  25.5098000000	  11.6985000000	   8.8190000000
C	  25.2215000000	  12.5616000000	  12.8813000000
C	  25.5137000000	  16.3247000000	  10.4966000000
H	  24.9246000000	  11.1147000000	   8.2003600000
H	  26.1733000000	  12.1761000000	   8.1267400000
H	  26.0507000000	  11.0281000000	   9.5548500000
H	  24.5761000000	  12.5066000000	  13.7276000000
H	  24.9907000000	  11.6222000000	  12.3905000000
H	  26.2817000000	  12.7243000000	  13.2032000000
H	  26.1528000000	  16.6904000000	   9.6708000000
H	  24.7649000000	  17.1762000000	  10.7276000000
H	  26.0976000000	  16.2023000000	  11.4488000000
N	  27.6539000000	  12.5595000000	   6.2275100000
S	  28.7635000000	  13.4133000000	   6.8737300000
O	  28.7798000000	  13.4133000000	   8.3293200000
O	  30.0601000000	  13.3465000000	   6.1874400000
C	  28.0200000000	  15.0386000000	   6.4333000000
F	  28.8574000000	  16.0574000000	   6.7104500000
F	  26.8223000000	  15.2830000000	   6.9276500000
F	  27.8226000000	  15.0693000000	   5.1051600000
S	  27.8341000000	  11.1777000000	   5.4662300000
O	  26.7993000000	  10.1858000000	   5.7215500000
O	  29.1932000000	  10.6358000000	   5.4179800000
C	  27.4834000000	  11.6929000000	   3.7261700000
F	  28.5018000000	  12.3589000000	   3.1573100000
F	  27.3629000000	  10.6705000000	   2.9264900000
F	  26.4018000000	  12.4179000000	   3.5414100000
N	  31.5237000000	  12.9180000000	  12.5014000000
S	  30.7824000000	  14.2349000000	  11.9882000000
O	  31.4461000000	  15.4460000000	  12.2322000000
O	  30.1715000000	  14.0904000000	  10.6886000000
C	  29.3503000000	  14.3539000000	  13.0282000000
F	  28.5984000000	  13.3081000000	  12.7957000000
F	  28.5988000000	  15.4692000000	  12.8472000000
F	  29.5524000000	  14.2931000000	  14.3732000000
S	  33.0858000000	  12.7023000000	  12.8143000000
O	  33.7015000000	  13.7118000000	  13.6633000000
O	  33.8106000000	  12.2393000000	  11.6607000000
C	  32.8323000000	  11.2032000000	  13.9132000000
F	  31.9599000000	  11.4074000000	  14.9277000000
F	  32.4204000000	  10.1372000000	  13.2858000000
F	  33.8922000000	  10.7774000000	  14.6101000000
