37

Li	  44.4629000000	  50.3049000000	  14.9085000000
O	  44.8791000000	  48.4120000000	  15.2832000000
O	  46.2433000000	  47.6800000000	  16.8388000000
C	  46.1580000000	  48.1844000000	  14.7728000000
C	  46.6809000000	  47.1676000000	  15.6875000000
C	  44.9304000000	  48.0039000000	  16.5532000000
H	  46.2436000000	  47.9064000000	  13.7397000000
H	  46.7981000000	  49.1011000000	  14.8269000000
H	  46.2539000000	  46.1838000000	  15.5255000000
H	  47.7485000000	  47.0453000000	  15.7784000000
H	  44.5616000000	  48.6817000000	  17.2806000000
H	  44.3409000000	  47.0982000000	  16.5063000000
S	  42.8593000000	  49.7143000000	  13.3161000000
S	  42.2571000000	  50.8573000000	  14.9014000000
C	  41.5313000000	  48.5601000000	  12.9402000000
C	  41.3301000000	  52.1034000000	  14.1228000000
H	  41.2872000000	  47.7792000000	  13.7700000000
H	  40.6102000000	  49.0859000000	  12.7953000000
H	  41.7077000000	  48.0921000000	  11.9386000000
H	  41.6158000000	  53.0779000000	  14.5771000000
H	  41.6666000000	  52.2145000000	  13.0826000000
H	  40.2421000000	  51.8384000000	  14.2352000000
N	  44.7804000000	  51.5695000000	  19.2231000000
S	  45.8151000000	  51.3148000000	  20.4017000000
O	  47.1876000000	  51.3014000000	  20.0389000000
O	  45.4254000000	  52.0629000000	  21.5361000000
C	  45.6071000000	  49.5912000000	  20.8179000000
F	  46.6183000000	  49.0917000000	  21.5333000000
F	  45.6497000000	  48.8160000000	  19.7108000000
F	  44.4373000000	  49.3753000000	  21.4684000000
S	  45.1209000000	  52.1535000000	  17.7968000000
O	  44.9117000000	  51.2286000000	  16.7475000000
O	  46.3437000000	  52.8688000000	  17.8020000000
C	  43.7354000000	  53.3302000000	  17.5687000000
F	  43.7627000000	  54.2630000000	  18.5521000000
F	  43.8672000000	  53.9581000000	  16.4483000000
F	  42.5426000000	  52.7420000000	  17.5052000000
