28

Li	  24.6500000000	  58.4389000000	  16.6691000000
O	  23.8522000000	  54.9200000000	  15.8683000000
O	  24.9847000000	  56.8345000000	  16.0762000000
C	  24.7806000000	  54.7352000000	  16.9475000000
C	  25.7892000000	  55.7939000000	  16.5567000000
C	  24.0055000000	  56.1733000000	  15.3157000000
H	  24.4035000000	  55.0778000000	  17.9017000000
H	  25.0922000000	  53.6954000000	  17.0634000000
H	  26.3857000000	  56.0684000000	  17.3861000000
H	  26.5040000000	  55.3880000000	  15.7762000000
H	  24.2659000000	  56.0418000000	  14.2480000000
H	  23.1021000000	  56.7702000000	  15.2184000000
S	  31.5992000000	  55.7856000000	  25.4718000000
S	  30.9242000000	  56.9723000000	  23.8440000000
S	  28.8317000000	  56.4803000000	  23.3251000000
S	  24.9090000000	  58.7051000000	  21.2175000000
S	  24.9540000000	  58.2515000000	  19.1379000000
S	  23.1459000000	  58.7122000000	  18.0821000000
S	  26.8540000000	  59.1892372410	  21.8020000000
S	  27.5686000000	  58.1495000000	  23.5587000000
S	  25.8205000000	  60.1417552410	  15.5010000000
S	  24.6320000000	  60.3634552410	  13.8679000000
S	  22.7442000000	  59.4369252410	  14.1782000000
S	  22.2174000000	  63.2716452410	  16.3394000000
S	  24.1797000000	  63.1392452410	  17.2333000000
S	  25.7610000000	  63.6500752410	  15.9751000000
S	  21.0704000000	  61.5664952410	  16.3580000000
S	  21.1245000000	  60.7467752410	  14.4314000000
