28

Li	   1.7570100000	  35.2118000000	  37.0093000000
O	   1.3147800000	  36.0686000000	  35.4762000000
O	   0.9633300000	  36.8569000000	  33.2546000000
C	   0.8432260000	  37.4418000000	  35.5077000000
C	   0.3422262221	  37.7999000000	  34.1041000000
C	   1.1659700000	  35.7397000000	  34.1271000000
H	   0.0709262221	  37.5527000000	  36.2917000000
H	   1.7257600000	  38.0866000000	  35.7351000000
H	  -0.6824737779	  37.6438000000	  34.0989000000
H	   0.5391262221	  38.8381000000	  33.7367000000
H	   2.1514400000	  35.3086000000	  33.8022000000
H	   0.3003262221	  35.0130000000	  33.9306000000
S	   7.1354100000	  26.6370000000	  31.4173000000
S	   7.1064600000	  26.4427000000	  33.4700000000
S	   5.4456200000	  27.3807000000	  34.3752000000
S	   3.1035300000	  31.2130000000	  34.4343000000
S	   2.6743700000	  33.0806000000	  35.3761000000
S	   1.2878400000	  33.0110000000	  36.9077000000
S	   5.1187700000	  30.9257000000	  33.8199000000
S	   5.9653900000	  29.3297000000	  34.9919000000
S	  -6.3766737779	  36.8034000000	  43.8362000000
S	  -4.7194737779	  35.8723000000	  42.7365000000
S	  -3.9299737779	  36.9488000000	  41.0811000000
S	   0.2742262221	  36.0587000000	  38.7558000000
S	   2.1761600000	  36.4412000000	  39.3607000000
S	   3.4742300000	  36.5653000000	  37.6775000000
S	  -0.8775737779	  37.6999000000	  39.4453000000
S	  -1.8388737779	  37.2006000000	  41.2125000000
