46

Li	  32.2993000000	  23.8563000000	  56.2945000000
O	  32.1869000000	  21.9118000000	  56.5254000000
O	  34.0903000000	  20.6762000000	  56.7285000000
C	  31.7207000000	  20.7013000000	  57.0828000000
C	  33.0540000000	  20.0598000000	  57.5867000000
C	  33.3656000000	  21.5320000000	  55.9349000000
H	  31.0304000000	  20.7931000000	  57.9050000000
H	  31.2284000000	  20.0927000000	  56.2901000000
H	  33.1714000000	  20.3802000000	  58.6446000000
H	  33.1027000000	  18.9406000000	  57.4933000000
H	  33.1795000000	  20.9763000000	  54.9992000000
H	  33.9827000000	  22.2624000000	  55.5136000000
O	  30.5094000000	  25.2634000000	  57.3867000000
O	  28.4239000000	  25.6984000000	  56.5619000000
C	  29.7897000000	  24.0656000000	  57.3663000000
C	  28.7592000000	  24.3437000000	  56.3318000000
C	  29.5522000000	  26.2339000000	  57.2265000000
H	  30.3417000000	  23.1580000000	  57.1281000000
H	  29.3298000000	  23.8519000000	  58.3532000000
H	  29.2594000000	  24.2607000000	  55.4318000000
H	  27.8930000000	  23.7213000000	  56.3268000000
H	  29.3597000000	  26.8160000000	  58.1044000000
H	  30.0057000000	  27.0356000000	  56.6324000000
N	  32.2221000000	  23.3390000000	  52.0044000000
S	  31.1498000000	  23.5646000000	  53.1015000000
O	  31.6800000000	  23.8949000000	  54.4324000000
O	  30.1345000000	  24.3641000000	  52.4983000000
C	  30.2733000000	  21.9385000000	  53.2923000000
F	  29.1551000000	  22.0674000000	  53.9970000000
F	  31.0103000000	  21.0568000000	  54.0096000000
F	  29.9086000000	  21.3719000000	  52.1858000000
S	  33.8347000000	  23.2481000000	  52.2005000000
O	  34.4344000000	  21.9795000000	  51.9423000000
O	  34.3358000000	  23.9418000000	  53.3524000000
C	  34.5155000000	  24.2050000000	  50.7590000000
F	  34.1537000000	  23.6860000000	  49.5636000000
F	  34.3126000000	  25.5049000000	  50.6764000000
F	  35.7855000000	  24.0691000000	  50.7821000000
S	  34.0442000000	  24.8250000000	  56.7830000000
S	  33.2696000000	  26.8081000000	  56.3706000000
S	  32.0769000000	  27.0619000000	  54.5527000000
S	  33.4949000000	  28.9972000000	  49.8352000000
S	  33.3173000000	  30.8921000000	  48.8874000000
S	  34.0859000000	  30.8429000000	  46.9058000000
S	  33.4000000000	  29.1161000000	  51.9412000000
S	  33.2379000000	  27.1529000000	  52.8252000000
