41

Li	  42.0688000000	  37.0890000000	  39.7579000000
O	  44.9694000000	  36.1679000000	  37.7945000000
O	  43.5314000000	  37.7260000000	  38.6616000000
C	  45.7622000000	  36.9485000000	  38.7479000000
C	  44.7457000000	  37.8274000000	  39.3764000000
C	  43.9221000000	  37.0774000000	  37.4881000000
H	  46.3723000000	  36.3680000000	  39.5142000000
H	  46.5458000000	  37.5427000000	  38.3031000000
H	  44.5858000000	  37.4958000000	  40.3932000000
H	  45.1417000000	  38.8820000000	  39.3329000000
H	  44.2812000000	  37.8316000000	  36.7761000000
H	  43.1312000000	  36.4287000000	  37.0561000000
O	  42.5598000000	  35.1316000000	  39.8810000000
O	  41.8626000000	  33.2498000000	  40.7921000000
C	  43.7634000000	  34.4334000000	  40.0712000000
C	  43.2730000000	  33.0907000000	  40.6795000000
C	  41.6060000000	  34.1147000000	  39.7763000000
H	  44.4399000000	  34.2225000000	  39.2634000000
H	  44.3245000000	  35.0228000000	  40.7813000000
H	  43.3898000000	  32.2618000000	  39.9067000000
H	  43.8327000000	  32.9545000000	  41.6088000000
H	  40.5974000000	  34.4831000000	  39.7939000000
H	  41.6961000000	  33.5939000000	  38.7808000000
S	  43.3468000000	  38.2808000000	  42.6521000000
S	  41.5663000000	  37.8805000000	  41.6173000000
C	  42.7790000000	  39.7855000000	  43.5646000000
C	  40.5440000000	  36.9627000000	  42.8027000000
H	  42.6709000000	  40.6338000000	  42.8999000000
H	  41.8140000000	  39.6948000000	  44.1427000000
H	  43.4597000000	  40.0513000000	  44.2923000000
H	  40.4565000000	  37.6009000000	  43.6790000000
H	  39.5529000000	  36.8016000000	  42.4512000000
H	  41.0560000000	  36.0312000000	  43.0349000000
S	  38.7337000000	  34.7771000000	  36.3608000000
S	  38.1164000000	  34.0276000000	  38.2374000000
S	  36.3766000000	  35.1682000000	  38.7685000000
S	  38.7374000000	  39.1632000000	  40.3106000000
S	  39.7460000000	  39.2852000000	  38.4889000000
S	  40.6104000000	  37.3658000000	  38.1047000000
S	  36.7694000000	  38.4678000000	  40.1816000000
S	  36.7246000000	  36.3647000000	  40.4478000000
