23

Li	  35.2251000000	   4.4800300000	  40.9277000000
O	  36.3616000000	   3.2159200000	  40.6108000000
O	  37.2388000000	   2.6198800000	  38.6242000000
C	  37.7653000000	   3.2622200000	  40.8233000000
C	  38.3146000000	   3.1606100000	  39.3542000000
C	  36.1705000000	   2.3816300000	  39.5393000000
H	  38.1082000000	   4.1553300000	  41.4295000000
H	  38.0857000000	   2.4220100000	  41.3218000000
H	  38.5134000000	   4.1481600000	  39.0424000000
H	  39.1976000000	   2.5606300000	  39.1687000000
H	  36.2383000000	   1.3287900000	  39.8001000000
H	  35.2499000000	   2.5713100000	  38.9540000000
O	  35.5648000000	   6.1296600000	  40.0311000000
O	  34.9442000000	   7.5577000000	  38.3408000000
C	  35.5432000000	   7.5179300000	  40.4794000000
C	  34.6669000000	   8.2455300000	  39.4370000000
C	  35.1373000000	   6.2302600000	  38.7451000000
H	  35.0059000000	   7.5787500000	  41.3759000000
H	  36.5609000000	   7.9958800000	  40.5056000000
H	  33.6077000000	   8.1989900000	  39.6489000000
H	  35.0625000000	   9.3207200000	  39.3024000000
H	  35.9280000000	   5.8543700000	  38.1326000000
H	  34.2097000000	   5.5774500000	  38.6547000000
