19

Li	  21.0186000000	   4.8801800000	  16.1699000000
S	  20.7622000000	   2.6668300000	  15.6640000000
S	  19.7900000000	   3.9092200000	  14.2774000000
C	  21.2977000000	   1.1663000000	  14.8258000000
C	  18.1093000000	   3.3965100000	  13.7976000000
H	  20.3760000000	   0.7021247590	  14.4461000000
H	  21.8098000000	   1.5487100000	  13.8971000000
H	  21.9380000000	   0.5156247590	  15.4105000000
H	  17.9263000000	   4.0018100000	  12.8751000000
H	  18.0405000000	   2.3584300000	  13.5487000000
H	  17.3662000000	   3.7280500000	  14.5328000000
S	  20.4217000000	   5.5050500000	  18.0395000000
S	  18.5093000000	   5.0304800000	  17.2021000000
S	  17.4636000000	   6.7335800000	  16.5949000000
S	  21.2862000000	   7.6229900000	  13.8336000000
S	  22.7063000000	   7.2417100000	  15.4697000000
S	  23.1367000000	   5.2170700000	  15.6040000000
S	  19.3870000000	   8.5086400000	  14.4414000000
S	  17.9456000000	   7.0405600000	  14.6008000000
