39

Li	  37.3112000000	  21.3201000000	  46.8861000000
O	  39.3708000000	  19.8527000000	  43.9344000000
O	  38.3079000000	  21.1868000000	  45.3733000000
C	  38.2487000000	  20.3445000000	  43.2154000000
C	  37.7895000000	  21.5072000000	  44.1167000000
C	  39.5523000000	  20.6041000000	  45.0959000000
H	  38.4490000000	  20.8777000000	  42.3229000000
H	  37.3918000000	  19.6579000000	  42.9961000000
H	  38.2858000000	  22.4145000000	  43.8007000000
H	  36.7571000000	  21.5861000000	  44.0738000000
H	  39.9362000000	  19.9541000000	  45.8753000000
H	  40.2830000000	  21.3590000000	  45.0444000000
O	  38.6700000000	  21.0277000000	  48.5213000000
O	  38.5578000000	  21.6760000000	  50.6709000000
C	  38.3042000000	  19.8647000000	  49.3118000000
C	  38.7692000000	  20.3123000000	  50.7078000000
C	  39.0961000000	  22.0004000000	  49.4326000000
H	  37.2120000000	  19.8528000000	  49.2798000000
H	  38.8151000000	  19.0474000000	  49.0458000000
H	  38.1682000000	  19.8620000000	  51.4371000000
H	  39.7770000000	  19.9693000000	  50.6534000000
H	  40.1896000000	  21.9661000000	  49.4704000000
H	  38.8036000000	  23.0458000000	  49.1537000000
S	  40.7823000000	  25.2701000000	  54.4432000000
S	  40.7644000000	  26.2972000000	  52.5746000000
S	  42.5199000000	  26.0918000000	  51.3748000000
S	  40.8693000000	  23.6798000000	  47.0413000000
S	  39.1015000000	  24.6213000000	  46.3221000000
S	  37.2740000000	  23.6385000000	  46.9895000000
S	  42.1980000000	  25.0252000000	  48.0761000000
S	  42.1938000000	  24.4325000000	  50.1171000000
S	  34.6373000000	  14.2578000000	  52.0121000000
S	  36.5725000000	  15.0790000000	  52.3406000000
S	  37.1548000000	  16.5612000000	  50.9294000000
S	  37.6266000000	  17.6806000000	  46.3852000000
S	  35.8331000000	  18.6921000000	  45.8709000000
S	  35.5001000000	  20.3538000000	  46.9643000000
S	  37.2591000000	  15.9780000000	  47.6779000000
S	  38.4438000000	  15.9906000000	  49.4668000000
