30

Li	   2.9013700000	  33.2270000000	  37.0373000000
O	   6.2170500000	  32.8760000000	  39.5898000000
O	   4.3743700000	  33.4610000000	  38.3718000000
C	   6.3218300000	  34.2442000000	  39.4031000000
C	   4.9479000000	  34.6984000000	  38.7863000000
C	   5.3681600000	  32.5097000000	  38.5709000000
H	   6.6467100000	  34.8391000000	  40.2338000000
H	   7.0775100000	  34.4312000000	  38.5857000000
H	   4.4343500000	  35.3024000000	  39.5491000000
H	   5.0072100000	  35.4332000000	  37.9979000000
H	   5.9200700000	  32.3361000000	  37.6557000000
H	   4.8894000000	  31.5598000000	  38.8713000000
S	   2.8091200000	  31.1854000000	  36.0879000000
S	   1.4515000000	  31.4851000000	  37.6018000000
C	   2.7374900000	  29.4450000000	  35.6410000000
C	  -0.1200737779	  31.8550000000	  36.8281000000
H	   3.3051300000	  28.8273000000	  36.3280000000
H	   1.6653700000	  29.0780000000	  35.7475000000
H	   3.0131900000	  29.2586000000	  34.6137000000
H	  -0.9272737779	  32.0656000000	  37.6054000000
H	   0.1688262221	  32.7005000000	  36.1863000000
H	  -0.5453737779	  30.9994000000	  36.3391000000
S	  -6.4920737779	  35.6244000000	  40.5969000000
S	  -5.1591737779	  34.8737000000	  42.0396000000
S	  -3.3482737779	  35.8931000000	  42.0429000000
S	   0.1940262221	  35.2246000000	  38.1153000000
S	   1.7152500000	  36.2796000000	  37.1009000000
S	   2.7231500000	  34.8856000000	  35.8285000000
S	  -0.9910737779	  36.2956000000	  39.5490000000
S	  -1.9024737779	  34.9572000000	  40.8664000000
