48

Li	   7.5747000000	  19.0030000000	  27.0665000000
O	   6.3916100000	  16.9813000000	  23.4173000000
O	   6.8536600000	  17.7776000000	  25.4802000000
C	   6.5437100000	  18.3245000000	  23.2689000000
C	   6.3089900000	  18.8655000000	  24.7062000000
C	   6.7611300000	  16.6597000000	  24.6838000000
H	   7.5907100000	  18.4750000000	  23.0663000000
H	   6.0651500000	  18.8432000000	  22.4292000000
H	   6.7527100000	  19.8332000000	  24.8800000000
H	   5.2465400000	  18.7917000000	  24.7919000000
H	   6.0672400000	  15.8865000000	  25.1376000000
H	   7.7938900000	  16.1808000000	  24.7381000000
O	   8.5116100000	  17.6755000000	  27.9014000000
O	   8.9366300000	  16.9719000000	  29.9650000000
C	   8.2415900000	  16.2692000000	  27.9117000000
C	   8.2734400000	  15.8400000000	  29.3640000000
C	   9.4255100000	  17.7776000000	  28.9142000000
H	   7.3715900000	  15.9756000000	  27.3368000000
H	   9.0695300000	  15.7218000000	  27.3971000000
H	   7.2541000000	  15.6865000000	  29.7683000000
H	   8.8653200000	  14.9167000000	  29.4379000000
H	  10.4393000000	  17.3542000000	  28.7092000000
H	   9.7598800000	  18.7539000000	  29.3094000000
S	   8.6852700000	  20.8549000000	  26.8393000000
S	   9.9246800000	  20.0786000000	  25.4146000000
C	   9.2240300000	  22.6082000000	  26.6545000000
C	  11.5819000000	  19.6708000000	  26.1062000000
H	   8.6706800000	  23.1848000000	  27.4153000000
H	  10.2078000000	  22.6568000000	  26.8380000000
H	   9.0930500000	  22.8477000000	  25.5934000000
H	  12.0259000000	  18.7933000000	  25.6591000000
H	  12.1861000000	  20.5981000000	  25.8229000000
H	  11.3645000000	  19.5705000000	  27.1537000000
N	   4.1357200000	  16.6281000000	  27.6854000000
S	   4.5493300000	  18.0152000000	  28.2492000000
O	   4.1719200000	  18.2067000000	  29.6382000000
O	   5.7404000000	  18.6224000000	  27.7154000000
C	   3.2487600000	  19.0107000000	  27.4289000000
F	   3.1166600000	  18.8388000000	  26.1340000000
F	   3.3133300000	  20.2628000000	  27.7011000000
F	   2.0161600000	  18.6597000000	  27.9306000000
S	   3.4992900000	  15.4455000000	  28.5238000000
O	   2.1252100000	  15.1009000000	  28.2160000000
O	   3.9352200000	  15.4332000000	  29.8953000000
C	   4.4808800000	  13.9595000000	  27.8753000000
F	   3.9433400000	  13.5525000000	  26.7502000000
F	   5.7558100000	  14.1910000000	  27.7528000000
F	   4.3450400000	  12.9352000000	  28.6738000000
