68

Li	  27.1691000000	  24.2687000000	  11.9823000000
O	  28.5970000000	  23.8441000000	  13.5356000000
O	  29.5361000000	  22.5947000000	  15.2345000000
C	  28.2013000000	  24.4028000000	  14.7973000000
C	  29.3031000000	  23.8882000000	  15.7670000000
C	  29.5264000000	  22.8163000000	  13.8804000000
H	  28.2225000000	  25.4765000000	  14.8312000000
H	  27.2290000000	  24.0474000000	  15.1590000000
H	  30.2267000000	  24.4808000000	  15.5627000000
H	  29.0046000000	  24.0300000000	  16.7808000000
H	  29.2054000000	  21.9567000000	  13.2886000000
H	  30.5316000000	  23.0853000000	  13.5978000000
O	  25.9486000000	  25.4836000000	  12.8574000000
O	  23.7418000000	  26.1491000000	  13.2685000000
C	  25.5352000000	  26.5952000000	  12.0734000000
C	  24.0388000000	  26.4624000000	  11.9373000000
C	  24.7732000000	  25.2018000000	  13.5664000000
H	  25.6938000000	  27.6031000000	  12.5845000000
H	  26.0868000000	  26.5583000000	  11.1543000000
H	  23.5327000000	  27.3988000000	  11.4462000000
H	  23.7557000000	  25.5572000000	  11.2952000000
H	  24.3873000000	  24.2526000000	  13.0740000000
H	  24.8363000000	  25.0866000000	  14.6707000000
N	  26.0715000000	  20.2295000000	  14.0497000000
S	  26.9794000000	  19.0908000000	  14.5399000000
O	  26.3645000000	  17.7841000000	  14.7491000000
O	  28.3222000000	  19.1505000000	  13.9943000000
C	  27.2811000000	  19.6491000000	  16.2629000000
F	  28.4303000000	  19.2947000000	  16.6830000000
F	  26.4116000000	  19.1241000000	  17.1270000000
F	  27.2509000000	  21.0074000000	  16.2846000000
S	  25.9051000000	  20.8428000000	  12.6117000000
O	  25.8844000000	  19.8467000000	  11.5290000000
O	  26.6346000000	  22.0721000000	  12.3865000000
C	  24.1087000000	  21.1899000000	  12.7124000000
F	  23.7697000000	  21.8977000000	  11.6760000000
F	  23.2828000000	  20.1248000000	  12.8131000000
F	  23.8689000000	  21.9581000000	  13.7210000000
N	  28.9275000000	  27.8474000000	  11.4250000000
S	  29.4748000000	  26.5449000000	  10.8624000000
O	  30.9772000000	  26.5137000000	  10.8434000000
O	  28.7359000000	  25.3829000000	  11.3606000000
C	  28.9575000000	  26.7177000000	   9.1111600000
F	  27.6638000000	  26.9262000000	   9.0318400000
F	  29.1418000000	  25.7419000000	   8.3042100000
F	  29.5263000000	  27.7980000000	   8.5438400000
S	  29.6464000000	  28.9206000000	  12.2568000000
O	  29.6708000000	  30.2417000000	  11.6674000000
O	  30.9161000000	  28.5141000000	  12.7090000000
C	  28.6700000000	  29.0089000000	  13.7527000000
F	  27.3521000000	  29.1646000000	  13.5651000000
F	  28.8586000000	  27.9610000000	  14.5664000000
F	  29.0487000000	  30.0065000000	  14.5126000000
N	  27.4265000000	  22.8985000000	   9.2767200000
S	  25.9053000000	  22.9670000000	   9.3805600000
O	  25.2387000000	  21.7143000000	   9.1732500000
O	  25.4927000000	  23.8557000000	  10.4532000000
C	  25.4845000000	  23.9530000000	   7.8998300000
F	  24.1699000000	  24.2340000000	   7.9226400000
F	  25.7783000000	  23.3207000000	   6.7801100000
F	  26.1034000000	  25.1225000000	   7.8612300000
S	  28.3294000000	  21.6312000000	   9.0747300000
O	  27.6045000000	  20.3786000000	   8.8025500000
O	  29.4826000000	  21.5620000000	   9.9595600000
C	  29.1540000000	  21.8896000000	   7.4935500000
F	  29.9637000000	  22.9874000000	   7.4894800000
F	  29.8087000000	  20.8273000000	   7.1180400000
F	  28.2824000000	  22.1655000000	   6.5339200000
