43

Li	  46.6981000000	  12.2268000000	  33.1411000000
O	  46.5721000000	  13.4460000000	  31.8658000000
O	  45.8728000000	  13.9591000000	  29.8209000000
C	  47.6499000000	  14.2121000000	  31.4022000000
C	  47.1010000000	  14.5842000000	  29.9462000000
C	  45.4634000000	  13.8912000000	  31.1048000000
H	  47.7353000000	  15.1762000000	  32.0102000000
H	  48.6094000000	  13.6104000000	  31.4016000000
H	  47.0015000000	  15.6739000000	  29.9463000000
H	  47.7480000000	  14.3072000000	  29.1004000000
H	  44.5627000000	  13.3339000000	  31.3691000000
H	  45.2603000000	  14.8985000000	  31.4440000000
O	  46.0499000000	  13.1502000000	  34.6863000000
O	  45.3234000000	  13.0207000000	  36.7909000000
C	  46.6716000000	  14.2370000000	  35.2598000000
C	  46.5831000000	  13.6667000000	  36.6810000000
C	  45.0467000000	  12.6700000000	  35.5065000000
H	  47.6330000000	  14.5116000000	  34.9282000000
H	  45.9090000000	  15.0291000000	  35.0966000000
H	  47.2930000000	  12.8714000000	  36.7823000000
H	  46.8438000000	  14.3801000000	  37.4241000000
H	  44.1636000000	  13.1697000000	  35.1004000000
H	  44.9300000000	  11.5485000000	  35.4293000000
S	  45.3846000000	   9.1683100000	  34.0174000000
S	  45.8214000000	  10.2718000000	  32.2712000000
C	  43.7841000000	   8.3920100000	  33.4577000000
C	  46.3336000000	   8.9950800000	  31.1248000000
H	  43.4191000000	   7.8706600000	  34.3233000000
H	  43.0749000000	   9.2765800000	  33.1170000000
H	  43.8126000000	   7.6838100000	  32.6614000000
H	  46.5644000000	   9.4449100000	  30.1294000000
H	  47.1626000000	   8.4197800000	  31.4647000000
H	  45.5195000000	   8.3447900000	  31.0140000000
S	  49.8067000000	  10.2452000000	  32.3359000000
S	  48.8649000000	  11.4805000000	  33.7301000000
C	  51.0760000000	  11.4088000000	  31.7839000000
C	  49.5136000000	  10.8141000000	  35.3005000000
H	  50.5953000000	  12.1538000000	  31.1585000000
H	  51.4749000000	  11.9129000000	  32.6619000000
H	  51.8771000000	  10.8809000000	  31.2902000000
H	  50.4470000000	  11.2064000000	  35.4757000000
H	  48.9414000000	  11.1783000000	  36.0804000000
H	  49.5059000000	   9.7554400000	  35.2917000000
