31

Li	   8.9161400000	  26.4652000000	  29.3164000000
O	  13.0241000000	  24.9432000000	  28.4563000000
O	  10.9239000000	  25.4834000000	  29.0902000000
C	  12.8860000000	  24.5211000000	  29.8092000000
C	  11.3519000000	  24.5439000000	  29.9984000000
C	  11.7105000000	  25.2539000000	  27.9751000000
H	  13.3572000000	  23.5966000000	  30.1124000000
H	  13.3069000000	  25.2359000000	  30.5081000000
H	  10.8419000000	  23.5894000000	  29.7787000000
H	  11.0551000000	  24.7521000000	  31.0415000000
H	  11.7812000000	  25.9645000000	  27.1916000000
H	  11.3718000000	  24.3287000000	  27.4654000000
O	   7.3853700000	  25.7982000000	  28.2648000000
O	   5.4955000000	  25.7529000000	  27.1407000000
C	   7.1879800000	  24.4620000000	  28.0382000000
C	   5.7838000000	  24.3768000000	  27.3481000000
C	   6.7519400000	  26.3589000000	  27.1949000000
H	   7.9905400000	  24.1009000000	  27.4151000000
H	   7.1371000000	  23.8756000000	  28.9170000000
H	   5.7095700000	  23.7616000000	  26.4706000000
H	   4.8541100000	  23.9820000000	  27.8622000000
H	   6.6128400000	  27.4226000000	  27.3347000000
H	   7.2204300000	  26.3005000000	  26.2314000000
S	   9.7973000000	  28.0259000000	  30.4185000000
S	   7.9243200000	  27.3900000000	  31.2153000000
S	   6.3245400000	  28.7300000000	  30.8664000000
S	   1.9548200000	  30.4675000000	  32.8833000000
S	   0.4986262221	  30.7834000000	  34.4808000000
S	  -1.3662737779	  31.5792000000	  33.7258000000
S	   3.5827800000	  29.1431000000	  33.2525000000
S	   5.5342900000	  29.7497000000	  32.5161000000
