35

Li	  32.7626000000	  14.4219000000	  54.1398000000
O	  34.3160000000	  15.2460000000	  54.9497000000
O	  35.5835000000	  16.3174000000	  56.4303000000
C	  35.6368000000	  14.6638000000	  54.7531000000
C	  36.4760000000	  15.6836000000	  55.5502000000
C	  34.4621000000	  16.4025000000	  55.7226000000
H	  35.5735000000	  13.6244000000	  54.9595000000
H	  36.0530000000	  14.6969000000	  53.7563000000
H	  37.2599000000	  15.2565000000	  56.0860000000
H	  36.9129000000	  16.4435000000	  54.8905000000
H	  34.4890000000	  17.2105000000	  54.9804000000
H	  33.6035000000	  16.6015000000	  56.3792000000
N	  31.3356000000	  10.8399000000	  56.0198000000
S	  32.7347000000	  11.5587000000	  55.7706000000
O	  32.5639000000	  12.7842000000	  55.0306000000
O	  33.6769000000	  11.5201000000	  56.8619000000
C	  33.5519000000	  10.3985000000	  54.5483000000
F	  34.5186000000	  11.0339000000	  53.9339000000
F	  32.7052000000	  10.0264000000	  53.6271000000
F	  34.0605000000	   9.3168400000	  55.1875000000
S	  29.8838000000	  11.2338000000	  55.5191000000
O	  29.9346000000	  12.1364000000	  54.3276000000
O	  28.9598000000	  11.5232000000	  56.5935000000
C	  29.2209000000	   9.6318000000	  54.8895000000
F	  28.1127000000	   9.8766800000	  54.1235000000
F	  30.1212000000	   8.9255400000	  54.2197000000
F	  28.7224000000	   8.9308800000	  55.8710000000
S	  26.7059000000	  14.2782000000	  61.2800437069
S	  27.7818000000	  14.5773000000	  59.4836137069
S	  29.2032000000	  16.1001000000	  59.4755537069
S	  31.3254000000	  16.2669000000	  54.4080000000
S	  30.8459000000	  14.9609000000	  52.7672000000
S	  32.6673000000	  13.9705000000	  52.0363000000
S	  30.9221000000	  15.5591000000	  56.3690000000
S	  29.5974000000	  16.8169000000	  57.4842000000
