50

Li	  32.8942000000	  26.9859000000	  44.9233000000
O	  31.4660000000	  26.5758000000	  46.0497000000
O	  31.1214000000	  25.4641000000	  44.1367000000
C	  31.3239000000	  25.2147000000	  46.4564000000
C	  31.6290000000	  24.5670000000	  45.1455000000
C	  30.7244000000	  26.6166000000	  44.8204000000
H	  32.0717000000	  25.0585000000	  47.1925000000
H	  30.3005000000	  25.0643000000	  46.7952000000
H	  32.6549000000	  24.3296000000	  44.9411000000
H	  31.0532000000	  23.6615000000	  45.0322000000
H	  29.6726000000	  26.5457000000	  45.0315000000
H	  30.8387000000	  27.4796000000	  44.0559000000
N	  35.7909000000	  27.0257000000	  41.4165000000
S	  34.8608000000	  26.0368000000	  42.2438000000
O	  35.4863000000	  24.8165000000	  42.7505000000
O	  33.9799000000	  26.6247000000	  43.2078000000
C	  33.7690000000	  25.3936000000	  40.9406000000
F	  32.9859000000	  24.3697000000	  41.2568000000
F	  34.4543000000	  24.8809000000	  39.9424000000
F	  33.0044000000	  26.4068000000	  40.5310000000
S	  36.1319000000	  28.5284000000	  41.6553000000
O	  37.4036000000	  28.8568000000	  42.3203000000
O	  35.0347000000	  29.3607000000	  42.0645000000
C	  36.3224000000	  28.9974000000	  39.9015000000
F	  37.5076000000	  28.6888000000	  39.5297000000
F	  35.4294000000	  28.4057000000	  39.0663000000
F	  36.0957000000	  30.2628000000	  39.7307000000
N	  31.3321000000	  31.3905000000	  45.1425000000
S	  30.2454000000	  31.3156000000	  44.0037000000
O	  30.1661000000	  32.4461000000	  43.2225000000
O	  30.0881000000	  30.0816000000	  43.2965000000
C	  28.7498000000	  31.4724000000	  44.9222000000
F	  27.7503000000	  31.8387000000	  44.1531000000
F	  28.7954000000	  32.3753000000	  45.9219000000
F	  28.4462000000	  30.2788000000	  45.5171000000
S	  32.5365000000	  30.4965000000	  45.4133000000
O	  32.5084000000	  29.2792000000	  44.6634000000
O	  32.8311000000	  30.4331000000	  46.8201000000
C	  33.8577000000	  31.5412000000	  44.6843000000
F	  33.7685000000	  32.8511000000	  45.0240000000
F	  35.1145000000	  31.1953000000	  45.0399000000
F	  33.7602000000	  31.5746000000	  43.3564000000
S	  31.2259000000	  17.8018000000	  50.4234000000
S	  31.2852000000	  19.5999000000	  49.3931000000
S	  32.9929000000	  19.7433000000	  48.2339000000
S	  35.1457000000	  23.7579000000	  47.2739000000
S	  35.7154000000	  25.5238000000	  46.2170000000
S	  34.4602000000	  27.2359000000	  46.2721000000
S	  34.4860000000	  22.2152000000	  46.0942000000
S	  32.6331000000	  21.2330000000	  46.6773000000
