39

Li	  28.2307000000	   3.7042600000	  14.1880000000
O	  29.9051000000	   2.8308100000	  14.2703000000
O	  32.0033000000	   3.3976300000	  13.5510000000
C	  30.5913000000	   3.3955400000	  15.3536000000
C	  31.6199000000	   4.2695100000	  14.5992000000
C	  31.0305000000	   2.3791600000	  13.5529000000
H	  30.0519000000	   3.9840100000	  16.0243000000
H	  31.0554000000	   2.6387300000	  15.8647000000
H	  31.1328000000	   5.1620900000	  14.1776000000
H	  32.3547000000	   4.5785700000	  15.2635000000
H	  31.3660000000	   1.4605000000	  13.9173000000
H	  30.8227000000	   2.0529700000	  12.5255000000
O	  26.8962000000	   6.0419200000	  17.1088000000
O	  27.9040000000	   5.2451300000	  15.3573000000
C	  26.5634000000	   6.9003000000	  16.1114000000
C	  27.5383000000	   6.5688300000	  15.0753000000
C	  27.9070000000	   5.2601800000	  16.7141000000
H	  25.5693000000	   6.7416100000	  15.8444000000
H	  26.6813000000	   7.9535000000	  16.4517000000
H	  27.1088000000	   6.7223400000	  14.1024000000
H	  28.3712000000	   7.2210800000	  15.1402000000
H	  28.7905000000	   5.7017400000	  17.0344000000
H	  27.7931000000	   4.2660500000	  17.0047000000
S	  35.6710000000	  -1.2053752410	  15.5159000000
S	  34.5945000000	  -0.7448752410	  17.2674000000
S	  32.8792000000	   0.4801247590	  16.9535000000
S	  28.3211000000	  -1.3237752410	  15.5658000000
S	  27.8174000000	   0.2281247590	  14.2438000000
S	  27.1658000000	   2.0469400000	  15.1114000000
S	  30.4190000000	  -1.5095752410	  15.8111000000
S	  31.1363000000	  -0.4973752410	  17.5413000000
S	  28.3935000000	   4.4622900000	  12.0951000000
S	  26.4001000000	   3.7145100000	  11.8860000000
S	  25.0557000000	   4.4284900000	  13.3731000000
S	  25.4331000000	   8.8693500000	  11.7854000000
S	  27.5559000000	   8.7973100000	  12.0119000000
S	  28.4482000000	   7.6303500000	  10.5113000000
S	  24.5490000000	   7.7559600000	  13.3398000000
S	  23.8824000000	   5.9232500000	  12.7159000000
