31

Li	  56.6636000000	  11.8576000000	  32.2192000000
O	  56.6659000000	  14.9714000000	  35.1046000000
O	  57.1277000000	  13.6592000000	  33.3013000000
C	  57.5387000000	  13.9654000000	  35.6434000000
C	  57.9383000000	  13.2418000000	  34.3707000000
C	  56.7630000000	  14.9557000000	  33.7139000000
H	  58.4039000000	  14.4821000000	  36.1426000000
H	  56.9829000000	  13.4115000000	  36.3818000000
H	  58.9464000000	  13.6133000000	  34.1856000000
H	  58.1161000000	  12.1634000000	  34.4347000000
H	  55.8301000000	  15.2890000000	  33.2284000000
H	  57.5615000000	  15.6814000000	  33.4120000000
O	  59.4397937779	  11.9173000000	  29.1408000000
O	  58.1692000000	  12.0389000000	  30.9907000000
C	  59.5997437779	  13.2335000000	  29.6464000000
C	  58.8299000000	  13.2834000000	  30.9769000000
C	  58.9773000000	  11.1932000000	  30.2562000000
H	  60.6452237779	  13.5559000000	  29.7979000000
H	  59.1351000000	  13.8428000000	  28.9299000000
H	  59.5154937779	  13.5095000000	  31.7561000000
H	  58.1754000000	  14.1090000000	  31.1535000000
H	  58.4686000000	  10.3452000000	  29.9797000000
H	  59.8217737779	  10.8715000000	  30.8282000000
S	  55.2259000000	  12.9831000000	  30.7112000000
S	  53.6003000000	  14.1894000000	  31.3637000000
S	  51.7164000000	  13.4208000000	  31.3991000000
S	  53.2784000000	  10.3352000000	  34.4797000000
S	  54.9606000000	  11.1514000000	  33.6380000000
S	  56.3109000000	   9.8052000000	  32.6677000000
S	  51.3734000000	  10.4414000000	  33.3726000000
S	  51.0580000000	  12.5698000000	  33.2361000000
