24

Li	  31.6294000000	  41.7272000000	  30.2276000000
N	  32.2941000000	  45.5142000000	  32.6617000000
S	  33.0816000000	  44.4796000000	  31.8060000000
O	  34.4135000000	  44.2679000000	  32.3518000000
O	  32.3051000000	  43.3319000000	  31.4138000000
C	  33.3003000000	  45.3181000000	  30.2340000000
F	  34.1070000000	  44.6452000000	  29.4309000000
F	  33.8199000000	  46.5459000000	  30.4754000000
F	  32.2092000000	  45.5932000000	  29.5529000000
S	  32.7165000000	  46.1353000000	  34.0816000000
O	  33.3025000000	  47.3964000000	  34.0258000000
O	  33.3647000000	  45.1520000000	  34.9706000000
C	  31.0969000000	  46.5156000000	  34.9404000000
F	  30.3473000000	  47.5434000000	  34.4244000000
F	  30.3406000000	  45.4737000000	  34.8047000000
F	  31.3030000000	  46.8178000000	  36.2416000000
S	  29.9741000000	  42.1675000000	  29.1818000000
S	  31.3154000000	  41.1184000000	  27.9860000000
S	  33.1084000000	  42.3377000000	  27.8776000000
S	  34.2957000000	  39.5608000000	  31.6198000000
S	  32.4559000000	  40.0051000000	  32.5223000000
S	  30.8205000000	  39.6825000000	  31.1639000000
S	  35.0920000000	  41.2735000000	  30.5775000000
S	  34.7367000000	  41.1712000000	  28.5567000000
