31

Li	  22.3484000000	  15.0898000000	   1.5078400000
O	  22.2259000000	  16.4949000000	   2.6148900000
O	  21.3576000000	  17.5897000000	   4.3587100000
C	  22.9403000000	  17.6775000000	   2.8907800000
C	  22.6954000000	  18.1321000000	   4.3351800000
C	  21.2368000000	  16.3815000000	   3.6211600000
H	  23.9792000000	  17.4853000000	   2.6960900000
H	  22.6453000000	  18.4684000000	   2.0905500000
H	  23.4936000000	  17.6812000000	   4.9699600000
H	  22.7509000000	  19.2281000000	   4.3826100000
H	  20.1910000000	  16.1192000000	   3.2539400000
H	  21.6012000000	  15.5967000000	   4.2088200000
O	  23.2057000000	  16.2898000000	   0.0797862931
O	  22.1840000000	  14.5623000000	  -0.6386137069
C	  22.1257000000	  16.9558000000	  -0.5551137069
C	  21.3368000000	  15.7257000000	  -0.9472137069
C	  23.4570000000	  15.0835000000	  -0.5434137069
H	  21.5690000000	  17.5832000000	   0.1007862931
H	  22.5192000000	  17.5313000000	  -1.3886137069
H	  20.4026000000	  15.5864000000	  -0.3520137069
H	  21.0949000000	  15.7251000000	  -2.0663137069
H	  23.8217000000	  15.2458000000	  -1.5575137069
H	  24.0735000000	  14.4471000000	   0.0439862931
S	  17.1365000000	  13.0171000000	   6.4226900000
S	  19.0789000000	  13.6142000000	   6.1292600000
S	  20.5946000000	  12.1836000000	   6.8607800000
S	  24.1086000000	  13.5206000000	   3.8538900000
S	  22.9139000000	  12.7676000000	   2.2374800000
S	  20.9821000000	  13.6410000000	   2.1226300000
S	  23.9242000000	  12.4173000000	   5.6606900000
S	  22.4332000000	  13.2300000000	   6.9675700000
