54

Li	  35.3535000000	  36.9637000000	  50.3067000000
N	  39.3493000000	  37.9461000000	  49.4535000000
S	  40.7223000000	  37.5140000000	  48.8896000000
O	  40.9077000000	  36.1112000000	  49.0594000000
O	  41.0486000000	  38.1187000000	  47.6531000000
C	  41.8778000000	  38.3039000000	  50.0683000000
F	  43.1109000000	  37.9669000000	  49.7838000000
F	  41.7479000000	  37.8161000000	  51.2912000000
F	  41.8021000000	  39.6196000000	  50.1953000000
S	  37.9985000000	  38.1522000000	  48.5282000000
O	  36.7705000000	  37.6268000000	  49.0927000000
O	  38.2532000000	  37.7976000000	  47.1499000000
C	  37.8451000000	  39.9327000000	  48.6055000000
F	  37.7203000000	  40.4702000000	  47.4268000000
F	  36.9378000000	  40.2575000000	  49.4670000000
F	  38.8860000000	  40.5971000000	  49.0046000000
N	  31.9438000000	  38.0521000000	  48.0086000000
S	  33.4045000000	  37.6606000000	  47.9092000000
O	  34.2593000000	  38.7922000000	  47.5623000000
O	  33.9379000000	  36.7998000000	  48.9436000000
C	  33.3866000000	  36.6421000000	  46.3728000000
F	  33.0358000000	  37.4020000000	  45.3403000000
F	  32.4614000000	  35.6583000000	  46.3637000000
F	  34.5506000000	  36.0680000000	  46.1154000000
S	  31.2253000000	  38.4804000000	  49.3430000000
O	  32.1111000000	  39.0234000000	  50.3549000000
O	  30.1696000000	  37.6047000000	  49.7928000000
C	  30.3697000000	  39.9374000000	  48.7819000000
F	  29.7793000000	  40.6206000000	  49.7276000000
F	  31.1298000000	  40.7816000000	  48.2759000000
F	  29.5008000000	  39.6805000000	  47.8243000000
N	  36.3642000000	  32.7156000000	  50.3737000000
S	  37.1729000000	  31.6103000000	  51.2104000000
O	  37.3813000000	  30.4333000000	  50.4581000000
O	  38.2939000000	  32.0734000000	  51.9969000000
C	  36.0327000000	  31.1120000000	  52.5703000000
F	  34.8065000000	  30.7952000000	  52.1317000000
F	  35.8021000000	  32.0689000000	  53.4627000000
F	  36.4742000000	  30.1214000000	  53.3347000000
S	  36.9485000000	  34.0559000000	  49.7553000000
O	  38.3286000000	  34.0099000000	  49.4242000000
O	  36.4883000000	  35.3048000000	  50.3448000000
C	  36.2766000000	  34.0023000000	  48.0800000000
F	  36.6623000000	  35.0567000000	  47.3952000000
F	  36.5433000000	  32.9562000000	  47.3922000000
F	  34.9370000000	  34.0845000000	  48.1296000000
S	  44.3668000000	  37.4268000000	  57.4408000000
S	  43.6606000000	  37.9783000000	  55.5392000000
S	  42.5028000000	  36.3847000000	  54.6461000000
S	  38.3584000000	  37.1968000000	  52.4561000000
S	  36.3132000000	  36.9818000000	  53.0665000000
S	  35.1390000000	  38.3413000000	  51.8681000000
S	  39.4642000000	  37.9666000000	  54.0344000000
S	  40.5299000000	  36.5700000000	  55.0646000000
