39

Li	   7.2139900000	  36.8380000000	  28.4885000000
N	   7.8276400000	  35.3229000000	  32.2357000000
S	   6.7163300000	  35.3522000000	  31.1892000000
O	   6.7478000000	  36.5648000000	  30.4103000000
O	   6.4326400000	  34.0861000000	  30.5362000000
C	   5.3220600000	  35.6620000000	  32.2800000000
F	   5.3010200000	  36.9108000000	  32.6590000000
F	   5.4254400000	  34.8782000000	  33.3851000000
F	   4.1332000000	  35.4936000000	  31.7488000000
S	   8.8792400000	  34.2175000000	  32.4488000000
O	  10.2831000000	  34.6347000000	  32.5263000000
O	   8.6535200000	  32.9979000000	  31.6553000000
C	   8.5178500000	  33.6254000000	  34.1285000000
F	   8.3879300000	  34.6483000000	  34.9372000000
F	   7.4018100000	  32.9480000000	  34.3383000000
F	   9.5645600000	  32.9295000000	  34.6726000000
N	   4.6189300000	  34.6668000000	  25.7638000000
S	   5.5431900000	  33.8477000000	  24.8477000000
O	   6.9336000000	  33.6846000000	  25.2426000000
O	   4.8106800000	  32.7448000000	  24.2153000000
C	   5.7940500000	  35.1249000000	  23.4978000000
F	   6.3366400000	  34.5903000000	  22.3628000000
F	   6.6503400000	  36.0515000000	  23.9029000000
F	   4.7096200000	  35.8058000000	  23.1573000000
S	   4.7181200000	  34.8618000000	  27.3477000000
O	   5.7026200000	  35.8821000000	  27.6490000000
O	   4.8284200000	  33.6708000000	  28.1004000000
C	   3.0475700000	  35.5340000000	  27.6951000000
F	   2.0400800000	  34.6754000000	  27.5513000000
F	   2.9655300000	  35.9335000000	  28.9533000000
F	   2.7428900000	  36.5864000000	  26.9803000000
S	   6.8541200000	  42.9254000000	  18.4568000000
S	   7.3531000000	  40.8526000000	  18.9231000000
S	   7.9020800000	  40.4788000000	  20.9395000000
S	   5.9648300000	  38.8020000000	  25.4797000000
S	   7.8685500000	  37.9699000000	  25.9053000000
S	   8.4873200000	  38.4024000000	  27.8922000000
S	   6.2996100000	  40.4849000000	  24.2678000000
S	   6.2301200000	  40.0358000000	  22.1359000000
