24

Li	  38.2388000000	  36.6737000000	  32.1067000000
N	  37.8960000000	  33.1356000000	  28.9812000000
S	  39.0303000000	  34.0573000000	  29.6964000000
O	  38.5403000000	  35.1383000000	  30.5268000000
O	  40.2989000000	  33.4854000000	  30.0822000000
C	  39.4507000000	  34.9547000000	  28.0815000000
F	  40.2148000000	  36.0371000000	  28.3211000000
F	  38.3079000000	  35.3698000000	  27.5142000000
F	  40.0815000000	  34.1925000000	  27.2326000000
S	  36.3888000000	  32.9045000000	  29.4263000000
O	  35.4607000000	  32.6024000000	  28.3845000000
O	  36.0125000000	  33.8031000000	  30.5427000000
C	  36.4801000000	  31.2116000000	  30.2354000000
F	  36.8967000000	  30.3775000000	  29.3310000000
F	  37.2097000000	  31.2248000000	  31.3568000000
F	  35.2204000000	  30.7456000000	  30.5226000000
S	  36.6387000000	  35.7867000000	  33.2886000000
S	  35.7468000000	  37.3868000000	  32.2732000000
S	  36.5191000000	  37.5257000000	  30.2768000000
S	  40.6826000000	  39.7365000000	  30.9961000000
S	  41.5488000000	  37.9759000000	  31.7890000000
S	  40.2464000000	  36.7968000000	  33.0189000000
S	  39.4283000000	  39.2762000000	  29.3474000000
S	  37.3107000000	  39.4169000000	  29.6570000000
