33

Li	  39.0475000000	  48.5304000000	   4.9123500000
O	  40.0622000000	  47.2384000000	   5.7915000000
O	  41.0179000000	  45.3350000000	   6.2684300000
C	  41.3271000000	  47.4802000000	   6.1015800000
C	  41.8985000000	  46.1794000000	   5.6264000000
C	  39.8002000000	  45.9649000000	   6.2017300000
H	  41.5996000000	  48.3766000000	   5.5462800000
H	  41.4910000000	  47.7299000000	   7.1667400000
H	  41.6668000000	  46.0533000000	   4.5765400000
H	  42.9673000000	  45.9001000000	   5.7598100000
H	  39.2861000000	  45.9874000000	   7.1095800000
H	  39.1574000000	  45.3690000000	   5.5378800000
O	  38.2484000000	  47.2818000000	   3.6700100000
O	  37.1152000000	  47.8308000000	   1.8216100000
C	  39.1235000000	  46.8780000000	   2.5778700000
C	  38.3538000000	  47.1851000000	   1.3402400000
C	  36.9665000000	  47.2337000000	   3.0132500000
H	  40.1522000000	  47.2936000000	   2.6790900000
H	  39.3033000000	  45.7810000000	   2.6067300000
H	  38.9801000000	  47.8648000000	   0.7660862931
H	  38.0464000000	  46.3068000000	   0.7885862931
H	  36.6779000000	  46.1341000000	   2.9619100000
H	  36.1724000000	  47.6762000000	   3.5850700000
S	  39.7096000000	  50.5124000000	   4.1519400000
S	  37.6868000000	  50.3901000000	   3.9963700000
C	  40.1264000000	  52.0500000000	   4.9669000000
C	  37.3824000000	  51.6227000000	   2.7800700000
H	  40.2130000000	  52.9811000000	   4.3466700000
H	  39.2810000000	  52.1678000000	   5.5957900000
H	  40.9998000000	  51.8813000000	   5.6736300000
H	  36.7511000000	  51.1348000000	   2.0034500000
H	  36.7140000000	  52.3887000000	   3.2647300000
H	  38.2269000000	  52.1815000000	   2.2744300000
