38

Li	  55.1888000000	  45.7016000000	  51.3891000000
O	  58.4835000000	  46.4794000000	  53.7449000000
O	  56.5929000000	  46.0442000000	  52.4575000000
C	  57.7850000000	  47.6891000000	  53.5076000000
C	  56.3236000000	  47.2697000000	  53.1776000000
C	  57.7497000000	  45.4940000000	  53.0652000000
H	  57.9539000000	  48.3583000000	  54.3311000000
H	  58.2792000000	  48.0914000000	  52.6146000000
H	  55.8146000000	  47.0561000000	  54.1462000000
H	  55.9593000000	  48.0324000000	  52.4900000000
H	  58.4358000000	  45.0864000000	  52.2396000000
H	  57.4232000000	  44.6520000000	  53.7673000000
O	  54.8589000000	  44.5080000000	  49.9706000000
O	  53.1267000000	  43.1045000000	  49.7849000000
C	  55.3675000000	  43.1655000000	  50.2873000000
C	  54.2319000000	  42.2834000000	  49.8837000000
C	  53.6320000000	  44.2493000000	  49.3010000000
H	  56.2472000000	  42.8737000000	  49.7997000000
H	  55.5827000000	  42.9127000000	  51.3028000000
H	  54.3867000000	  41.8766000000	  48.8950000000
H	  54.1560000000	  41.4335000000	  50.6108000000
H	  52.9350000000	  44.9913000000	  49.4462000000
H	  53.8286000000	  44.1901000000	  48.2165000000
N	  51.8401000000	  45.4700000000	  52.8918000000
S	  51.8786000000	  46.4355000000	  51.7027000000
O	  53.2038000000	  46.7599000000	  51.3417000000
O	  50.9381000000	  46.2974000000	  50.6552000000
C	  51.2312000000	  47.9021000000	  52.5849000000
F	  51.1214000000	  48.9583000000	  51.7859000000
F	  51.9893000000	  48.3164000000	  53.5327000000
F	  50.0386000000	  47.7482000000	  53.0610000000
S	  52.9374000000	  44.4691000000	  53.4932000000
O	  54.2615000000	  44.5779000000	  52.9471000000
O	  52.5582000000	  43.1117000000	  53.7890000000
C	  53.2004000000	  45.1557000000	  55.1963000000
F	  52.1299000000	  45.0747000000	  55.9575000000
F	  54.1566000000	  44.5821000000	  55.8927000000
F	  53.5320000000	  46.3618000000	  55.0799000000
