35

Li	  33.5288000000	  28.2102000000	  20.7394000000
O	  35.1761000000	  28.8866000000	  20.8072000000
O	  37.0666000000	  28.8901000000	  21.8742000000
C	  35.6361000000	  30.1913000000	  20.6155000000
C	  36.8983000000	  30.2325000000	  21.4229000000
C	  36.3644000000	  28.2297000000	  20.9250000000
H	  35.7947000000	  30.2802000000	  19.5687000000
H	  34.9028000000	  30.9068000000	  21.0266000000
H	  37.6261000000	  30.7029000000	  20.8039000000
H	  36.7572000000	  30.8721000000	  22.2233000000
H	  36.1933000000	  27.2259000000	  21.2082000000
H	  36.8010000000	  28.1546000000	  19.9380000000
N	  31.3823000000	  29.4019000000	  18.2688000000
S	  32.0984000000	  27.9797000000	  18.3097000000
O	  33.4178000000	  28.0045000000	  18.8354000000
O	  31.2961000000	  26.9985000000	  18.9389000000
C	  32.1015000000	  27.5548000000	  16.5563000000
F	  32.9208000000	  28.2720000000	  15.8195000000
F	  30.8789000000	  27.6250000000	  15.9872000000
F	  32.5782000000	  26.3330000000	  16.3883000000
S	  31.8019000000	  30.7171000000	  19.1301000000
O	  32.1463000000	  31.8527000000	  18.2999000000
O	  32.5788000000	  30.4451000000	  20.3034000000
C	  30.1789000000	  31.2261000000	  19.7219000000
F	  29.2225000000	  31.3264000000	  18.7737000000
F	  29.6379000000	  30.4325000000	  20.7007000000
F	  30.2185000000	  32.4759000000	  20.2504000000
S	  33.4762000000	  26.1259000000	  21.7380000000
S	  31.9798000000	  27.5685000000	  22.5448000000
S	  32.8746000000	  29.2365000000	  23.3509000000
S	  34.9210000000	  30.2641000000	  27.4465000000
S	  36.6796000000	  31.4014000000	  27.7023000000
S	  38.1426000000	  30.1529000000	  28.6723000000
S	  33.5029000000	  31.2706000000	  26.1926000000
S	  32.4154000000	  29.6408000000	  25.3014000000
