24

Li	  22.7992000000	  13.0360000000	   8.7100200000
N	  23.7977000000	  15.3834000000	  11.2547000000
S	  23.6994000000	  15.9252000000	   9.7741700000
O	  22.8421000000	  15.1879000000	   8.8544100000
O	  23.6869000000	  17.3281000000	   9.6602500000
C	  25.3324000000	  15.4859000000	   9.1036800000
F	  25.6150000000	  15.8718000000	   7.9051200000
F	  25.4096000000	  14.0719000000	   9.1146200000
F	  26.3211000000	  15.9765000000	   9.8308000000
S	  23.2585000000	  14.0883000000	  11.8785000000
O	  22.9494000000	  12.9976000000	  10.9647000000
O	  22.2760000000	  14.3727000000	  12.9229000000
C	  24.7588000000	  13.4911000000	  12.7027000000
F	  25.2927000000	  14.3637000000	  13.5666000000
F	  24.4453000000	  12.3701000000	  13.3098000000
F	  25.7341000000	  13.2168000000	  11.8034000000
S	  20.7557000000	  13.0555000000	   7.9143700000
S	  20.0826000000	  11.0065000000	   7.8324700000
S	  17.9882000000	  10.9120000000	   7.3864300000
S	  14.6573000000	  12.0211000000	   3.9370500000
S	  14.4141000000	  11.7608000000	   1.8211900000
S	  15.8255000000	  12.9542000000	   0.7435862931
S	  15.5821000000	  10.3496000000	   4.8719100000
S	  17.5623000000	  10.7976000000	   5.3808600000
