52

Li	  10.1533000000	  41.6789000000	  50.7388000000
O	   9.5660000000	  43.0169000000	  49.2200000000
O	   9.1388400000	  44.3887000000	  47.6104000000
C	   8.6252600000	  42.4042000000	  48.3470000000
C	   8.0771800000	  43.5369000000	  47.7001000000
C	   9.6772300000	  44.2998000000	  48.8369000000
H	   9.1819300000	  41.8580000000	  47.5665000000
H	   7.9065000000	  41.7763000000	  48.8043000000
H	   7.8074300000	  43.2228000000	  46.7002000000
H	   7.2325800000	  43.9876000000	  48.3502000000
H	   9.1696400000	  45.0380000000	  49.4586000000
H	  10.7517000000	  44.5414000000	  48.9222000000
S	  12.3143000000	  42.3332000000	  50.4687000000
S	  11.5697000000	  40.6073000000	  49.4159000000
C	  14.0999000000	  42.0531000000	  50.6455000000
C	  12.3430000000	  40.8104000000	  47.7694000000
H	  14.4700000000	  42.5095000000	  51.5659000000
H	  14.3334000000	  41.0686000000	  50.6834000000
H	  14.5737000000	  42.5118000000	  49.7368000000
H	  13.3936000000	  41.1401000000	  47.8689000000
H	  12.2377000000	  39.9644000000	  47.0857000000
H	  11.8652000000	  41.5764000000	  47.3243000000
N	  10.5315000000	  45.1207000000	  52.5630000000
S	  11.2817000000	  46.3435000000	  53.1887000000
O	  10.8494000000	  47.6640000000	  52.8235000000
O	  11.4993000000	  46.0718000000	  54.6097000000
C	  12.9464000000	  46.1405000000	  52.4716000000
F	  13.8341000000	  46.9491000000	  53.0870000000
F	  13.0856000000	  46.2707000000	  51.1017000000
F	  13.3069000000	  44.9436000000	  52.6946000000
S	   9.6430500000	  43.9805000000	  53.1378000000
O	   9.6554600000	  43.8127000000	  54.5223000000
O	   9.8109200000	  42.7855000000	  52.3306000000
C	   7.9918500000	  44.5966000000	  52.6707000000
F	   7.0974000000	  43.8296000000	  53.1484000000
F	   7.6666700000	  45.7643000000	  53.2145000000
F	   7.8706000000	  44.7840000000	  51.3943000000
N	   7.8710600000	  39.2023000000	  49.3833000000
S	   7.9712000000	  37.8096000000	  48.7070000000
O	   8.9974800000	  36.8944000000	  49.2864000000
O	   6.7719800000	  37.1754000000	  48.1822000000
C	   8.8719300000	  38.3733000000	  47.1537000000
F	   8.5394200000	  37.6225000000	  46.1610000000
F	  10.2056000000	  38.2304000000	  47.1862000000
F	   8.6030600000	  39.6294000000	  46.8355000000
S	   7.8350900000	  39.4157000000	  50.9636000000
O	   8.6684600000	  40.5211000000	  51.4296000000
O	   7.8436400000	  38.1580000000	  51.7092000000
C	   6.1829600000	  40.0461000000	  51.2282000000
F	   5.1980900000	  39.2237000000	  50.8035000000
F	   6.0157500000	  40.2062000000	  52.5195000000
F	   6.0081400000	  41.2411000000	  50.6214000000
