42

Li	  38.5326000000	  49.4216000000	  38.6167000000
O	  37.7749000000	  48.4975000000	  40.0170000000
O	  36.6708000000	  47.7596000000	  41.8254000000
C	  38.4954000000	  48.8591000000	  41.2039000000
C	  38.0656000000	  47.8371000000	  42.1504000000
C	  36.5636000000	  48.1519000000	  40.5286000000
H	  39.6224000000	  48.7613000000	  41.0171000000
H	  38.3578000000	  49.9613000000	  41.4912000000
H	  38.4604000000	  46.8141000000	  41.9574000000
H	  38.2796000000	  47.9102000000	  43.2381000000
H	  35.9242000000	  49.0345000000	  40.4496000000
H	  36.1384000000	  47.3431000000	  39.9362000000
N	  36.6407000000	  52.8067000000	  38.6622000000
S	  38.0401000000	  52.5499000000	  39.2760000000
O	  38.5132000000	  51.1738000000	  39.1349000000
O	  38.9704000000	  53.6058000000	  38.9719000000
C	  37.7575000000	  52.7753000000	  41.0156000000
F	  38.8719000000	  52.6339000000	  41.7831000000
F	  36.7763000000	  51.9909000000	  41.5253000000
F	  37.3469000000	  54.0039000000	  41.3046000000
S	  35.6950000000	  51.8997000000	  37.8274000000
O	  35.7925000000	  50.5029000000	  38.0668000000
O	  35.5286000000	  52.2533000000	  36.4370000000
C	  34.1096000000	  52.3262000000	  38.7049000000
F	  33.9154000000	  53.6872000000	  38.7646000000
F	  33.0502000000	  51.8201000000	  38.1653000000
F	  34.0444000000	  51.8583000000	  39.9449000000
N	  41.1633000000	  46.5262000000	  36.7241000000
S	  40.0179000000	  46.7505000000	  37.8134000000
O	  40.3091000000	  46.6318000000	  39.2296000000
O	  39.1918000000	  47.9191000000	  37.3965000000
C	  38.9354000000	  45.3002000000	  37.4635000000
F	  39.5335000000	  44.1984000000	  37.8452000000
F	  38.6453000000	  45.0397000000	  36.1813000000
F	  37.7571000000	  45.3898000000	  38.1378000000
S	  41.7774000000	  47.6105000000	  35.7781000000
O	  42.5108000000	  48.6094000000	  36.5071000000
O	  40.9625000000	  47.9716000000	  34.6571000000
C	  43.2243000000	  46.7032000000	  35.0008000000
F	  44.2526000000	  46.3952000000	  35.8178000000
F	  42.8266000000	  45.5813000000	  34.4687000000
F	  43.7544000000	  47.4104000000	  34.0171000000
