28

Li	  37.6038000000	  23.7746000000	  54.8485000000
O	  36.4218000000	  23.2517000000	  58.4256000000
O	  36.2840000000	  23.6411000000	  56.2890000000
C	  36.4918000000	  22.0023000000	  57.7226000000
C	  35.8151000000	  22.3654000000	  56.4546000000
C	  36.2302000000	  24.2235000000	  57.5316000000
H	  37.4873000000	  21.6922000000	  57.5488000000
H	  35.9667000000	  21.1448000000	  58.1663000000
H	  36.1363000000	  21.6832000000	  55.6579000000
H	  34.7667000000	  22.2741000000	  56.6579000000
H	  35.1382000000	  24.4101000000	  57.5851000000
H	  36.7676000000	  25.1533000000	  57.8774000000
S	  39.4403000000	  24.8672000000	  55.5482000000
S	  38.3461000000	  26.7158000000	  55.8863000000
S	  39.4384000000	  28.5028000000	  56.3540000000
S	  37.1114000000	  29.9307000000	  52.8447000000
S	  37.0986000000	  30.8243000000	  50.8732000000
S	  36.9500000000	  29.4720000000	  49.3012000000
S	  38.4374000000	  30.9361000000	  54.1347000000
S	  39.9180000000	  29.5941000000	  54.6783000000
S	  33.6196000000	  16.3224000000	  57.0403000000
S	  34.6793000000	  16.7343000000	  55.2925000000
S	  36.7609000000	  16.9773000000	  55.5849000000
S	  39.3282000000	  21.5151000000	  54.8451000000
S	  38.9751000000	  22.2217000000	  52.8823000000
S	  37.0735000000	  23.0415000000	  52.7222000000
S	  39.0095000000	  19.5285000000	  54.8350000000
S	  37.3669000000	  18.9104000000	  56.0873000000
