45

Li	  22.3088000000	  13.8839000000	  10.1814000000
O	  21.1651000000	  13.5183000000	  11.8217000000
O	  19.7542000000	  13.9537000000	  13.5834000000
C	  20.9635000000	  12.3672000000	  12.6717000000
C	  19.6747000000	  12.5189000000	  13.4148000000
C	  20.1553000000	  14.3779000000	  12.2919000000
H	  20.9660000000	  11.4683000000	  12.0147000000
H	  21.7270000000	  12.2755000000	  13.3629000000
H	  18.9979000000	  12.2789000000	  12.6521000000
H	  19.5521000000	  11.8990000000	  14.2828000000
H	  20.4472000000	  15.3982000000	  12.3490000000
H	  19.2823000000	  14.3401000000	  11.6855000000
S	  23.1388000000	  11.7057000000	   9.7420800000
S	  24.5730000000	  13.1601000000	  10.3806000000
C	  24.0987000000	  10.3370000000	   9.1366500000
C	  25.4744000000	  12.5216000000	  11.8696000000
H	  24.6435000000	   9.8702000000	  10.0137000000
H	  23.4284000000	   9.5760200000	   8.8277900000
H	  24.8883000000	  10.6410000000	   8.4039400000
H	  26.0444000000	  11.6506000000	  11.5316000000
H	  26.1658000000	  13.3117000000	  12.2712000000
H	  24.8903000000	  12.2015000000	  12.7608000000
N	  23.9995000000	  14.9899000000	  13.5958000000
S	  23.3513000000	  16.0919000000	  12.6547000000
O	  22.9815000000	  15.5870000000	  11.3866000000
O	  22.4171000000	  16.9714000000	  13.2932000000
C	  24.7519000000	  17.0987000000	  12.2341000000
F	  24.4567000000	  17.8519000000	  11.1808000000
F	  25.8312000000	  16.4666000000	  11.8133000000
F	  25.1284000000	  17.8581000000	  13.1822000000
S	  23.2948000000	  14.4079000000	  14.8777000000
O	  23.4905000000	  12.9670000000	  14.8670000000
O	  21.9468000000	  14.8981000000	  15.1590000000
C	  24.3071000000	  15.1335000000	  16.1993000000
F	  24.3804000000	  16.4662000000	  16.0858000000
F	  23.7410000000	  14.8694000000	  17.3432000000
F	  25.5052000000	  14.6193000000	  16.2040000000
S	  21.1314000000	  14.7827000000	   8.6893900000
S	  19.4484000000	  13.7169000000	   8.7408600000
S	  17.7650000000	  14.6793000000	   7.8033800000
S	  15.6251000000	  15.6639000000	   3.8042000000
S	  15.7269000000	  14.9781000000	   1.8607200000
S	  17.6692000000	  14.6524000000	   1.3560700000
S	  15.3456000000	  14.2280000000	   5.2945500000
S	  17.1365000000	  13.4748000000	   6.0979700000
