43

Li	  31.0431000000	  58.9519000000	  25.3768000000
O	  31.4522000000	  57.6231000000	  26.5709000000
O	  32.7640000000	  55.8261000000	  26.7269000000
C	  30.5823000000	  56.5515000000	  26.6674000000
C	  31.4756000000	  55.4456000000	  27.1732000000
C	  32.7216000000	  57.2052000000	  26.7573000000
H	  29.7994000000	  56.8408000000	  27.3617000000
H	  30.1342000000	  56.4480000000	  25.6667000000
H	  31.4234000000	  55.3100000000	  28.2560000000
H	  31.2069000000	  54.5304000000	  26.6910000000
H	  33.3627000000	  57.5444000000	  25.9273000000
H	  33.1529000000	  57.7650000000	  27.6354000000
N	  33.1114000000	  62.5576152410	  26.5596000000
S	  34.2423000000	  61.4539252410	  26.8346000000
O	  34.7862000000	  61.5753452410	  28.1463000000
O	  33.9974000000	  60.1402452410	  26.3393000000
C	  35.5267000000	  62.0667152410	  25.7183000000
F	  35.1241000000	  62.0320152410	  24.4465000000
F	  36.6390000000	  61.3518152410	  25.7299000000
F	  35.8958000000	  63.2548452410	  25.9964000000
S	  31.7476000000	  62.1880552410	  25.8312000000
O	  31.3284000000	  60.7907752410	  25.9273000000
O	  31.5710000000	  62.8262352410	  24.5721000000
C	  30.4846000000	  63.1192052410	  26.8474000000
F	  29.2381000000	  63.0884152410	  26.4218000000
F	  30.4478000000	  62.6606452410	  28.0686000000
F	  30.7719000000	  64.3657752410	  26.8509000000
S	  29.0323000000	  58.6305000000	  24.4738000000
S	  28.4447000000	  60.2593652410	  23.3549000000
S	  29.7345000000	  60.6943952410	  21.8023000000
S	  26.1187000000	  60.9681452410	  17.8765000000
S	  24.2315000000	  61.1664952410	  18.6963000000
S	  23.1497000000	  59.2365662410	  18.7100000000
S	  27.5331000000	  61.6957052410	  19.1318000000
S	  28.7613000000	  60.1993652410	  19.8984000000
S	  32.3875000000	  58.9266000000	  23.5373000000
S	  34.3188000000	  58.1651000000	  23.0928000000
S	  35.7204000000	  59.5690252410	  22.3027000000
S	  36.7299000000	  56.2684000000	  19.0343000000
S	  37.6475000000	  55.6197000000	  17.2097000000
S	  36.7268000000	  56.0194000000	  15.3798000000
S	  37.3753000000	  58.2572000000	  19.7154000000
S	  35.6736000000	  59.4415052410	  20.1631000000
