57

Li	  29.6022000000	  45.5343000000	  37.1812000000
O	  31.2971000000	  46.3336000000	  37.3912000000
O	  33.5652000000	  46.7334000000	  37.0439000000
C	  32.0242000000	  46.3420000000	  38.6431000000
C	  33.4705000000	  46.0421000000	  38.2754000000
C	  32.2899000000	  46.7466000000	  36.4691000000
H	  32.0152000000	  47.3007000000	  39.1597000000
H	  31.6506000000	  45.5426000000	  39.3364000000
H	  34.1826000000	  46.1740000000	  39.0745000000
H	  33.4391000000	  45.0642000000	  37.8966000000
H	  32.2749000000	  45.9248000000	  35.6907000000
H	  32.0344000000	  47.7065000000	  35.9243000000
N	  27.5034000000	  48.4589000000	  37.8776000000
S	  28.0619000000	  48.4313000000	  36.3740000000
O	  28.6167000000	  47.1776000000	  36.0104000000
O	  27.1160000000	  49.0644000000	  35.4832000000
C	  29.4601000000	  49.5418000000	  36.3968000000
F	  30.0770000000	  49.7328000000	  35.2260000000
F	  30.3683000000	  49.0354000000	  37.2096000000
F	  29.0688000000	  50.7576000000	  36.8008000000
S	  27.6092000000	  47.3208000000	  38.9725000000
O	  28.7580000000	  46.4827000000	  38.7676000000
O	  26.3634000000	  46.7872000000	  39.3929000000
C	  28.0213000000	  48.3702000000	  40.4222000000
F	  27.1408000000	  49.3003000000	  40.7681000000
F	  28.2114000000	  47.5785000000	  41.4554000000
F	  29.1491000000	  49.0076000000	  40.3010000000
N	  28.5508000000	  41.2432000000	  38.4878000000
S	  29.6865000000	  42.1632000000	  38.1026000000
O	  30.3613000000	  41.6673000000	  36.9079000000
O	  29.4750000000	  43.6066000000	  38.3154000000
C	  30.9453000000	  41.7829000000	  39.3360000000
F	  31.3908000000	  40.5448000000	  39.1247000000
F	  30.4486000000	  41.9462000000	  40.5996000000
F	  31.9276000000	  42.6448000000	  39.1104000000
S	  27.3209000000	  40.8298000000	  37.5406000000
O	  27.0521000000	  39.4224000000	  37.4547000000
O	  27.0511000000	  41.5767000000	  36.2973000000
C	  25.9176000000	  41.3573000000	  38.6170000000
F	  24.8008000000	  41.2636000000	  37.8644000000
F	  25.7903000000	  40.5300000000	  39.6016000000
F	  25.9239000000	  42.6074000000	  39.0067000000
N	  31.2032000000	  43.8956000000	  33.8233000000
S	  29.7193000000	  43.7652000000	  34.3298000000
O	  29.1911000000	  42.4226000000	  34.1551000000
O	  29.4200000000	  44.4790000000	  35.5180000000
C	  28.9051000000	  44.7231000000	  33.0454000000
F	  28.7583000000	  43.9517000000	  32.0013000000
F	  29.5409000000	  45.8239000000	  32.7072000000
F	  27.7178000000	  45.0595000000	  33.5031000000
S	  32.6117000000	  43.3644000000	  34.3761000000
O	  33.0018000000	  42.1591000000	  33.7112000000
O	  32.8337000000	  43.4979000000	  35.7787000000
C	  33.7676000000	  44.5551000000	  33.5912000000
F	  33.9879000000	  44.2535000000	  32.2805000000
F	  33.3766000000	  45.7936000000	  33.6465000000
F	  35.0118000000	  44.5064000000	  34.0012000000
