28

Li	  24.7400000000	   0.9051010000	  17.1148000000
O	  26.6356000000	  -2.4001752410	  18.2416000000
O	  26.1696000000	  -0.3661752410	  17.5151000000
C	  27.7604000000	  -2.1030752410	  17.4887000000
C	  27.4612000000	  -0.6808752410	  16.9729000000
C	  26.1936000000	  -1.1481752410	  18.6481000000
H	  28.6902000000	  -2.1834752410	  18.1412000000
H	  27.8650000000	  -2.8387752410	  16.6276000000
H	  28.2664000000	  -0.0736752410	  17.3041000000
H	  27.5102000000	  -0.5677752410	  15.8933000000
H	  25.2168000000	  -1.1551752410	  19.1061000000
H	  26.9620000000	  -0.7293752410	  19.3573000000
S	  29.0323000000	   0.3693247590	  24.4738000000
S	  28.4447000000	   1.9981900000	  23.3549000000
S	  29.7345000000	   2.4332200000	  21.8023000000
S	  26.1187000000	   2.7069700000	  17.8765000000
S	  24.2315000000	   2.9053200000	  18.6963000000
S	  23.1497000000	   0.9753910000	  18.7100000000
S	  27.5331000000	   3.4345300000	  19.1318000000
S	  28.7613000000	   1.9381900000	  19.8984000000
S	  24.4080000000	   1.2116100000	  15.0853000000
S	  22.4753000000	   0.5584247590	  15.2000000000
S	  21.0662000000	   1.9213200000	  16.0632000000
S	  21.9692000000	   6.1023800000	  14.1418000000
S	  23.7518000000	   6.1912600000	  15.1751000000
S	  25.0397000000	   4.6012600000	  14.7141000000
S	  20.4268000000	   5.3136700000	  15.2751000000
S	  20.0282000000	   3.3318000000	  14.7372000000
