48

Li	   7.8843100000	  28.1610000000	  53.3462000000
O	   9.0539200000	  29.3150000000	  54.9014000000
O	  10.3071000000	  30.6748000000	  56.2532000000
C	   8.2412800000	  29.7572000000	  55.9487000000
C	   9.1765100000	  30.2441000000	  57.0354000000
C	  10.1098000000	  30.2050000000	  54.9367000000
H	   7.5979100000	  30.5323000000	  55.5495000000
H	   7.6317800000	  28.9469000000	  56.2699000000
H	   8.7033000000	  31.0515000000	  57.7031000000
H	   9.4645800000	  29.3858000000	  57.6449000000
H	  11.0114000000	  29.7349000000	  54.6149000000
H	   9.8985200000	  31.0847000000	  54.2501000000
O	   9.6886300000	  27.2200000000	  52.3710000000
O	   9.0980900000	  26.8158000000	  50.2940000000
C	  10.6323000000	  27.9362000000	  51.5665000000
C	   9.9724100000	  27.9342000000	  50.2309000000
C	   9.2063500000	  26.2028000000	  51.5326000000
H	  10.9237000000	  28.9147000000	  51.9320000000
H	  11.5609000000	  27.2965000000	  51.5190000000
H	   9.4021700000	  28.8671000000	  50.1008000000
H	  10.7196000000	  27.8209000000	  49.4817000000
H	   9.8689900000	  25.3895000000	  51.4383000000
H	   8.2239000000	  25.8212000000	  51.8628000000
S	   6.3073800000	  28.2615000000	  51.6429000000
S	   6.9574900000	  30.0152000000	  52.6398000000
C	   6.0246700000	  28.8108000000	  49.8655000000
C	   5.5585600000	  31.2263000000	  52.5338000000
H	   6.9412900000	  29.2208000000	  49.4270000000
H	   5.6323100000	  27.9853000000	  49.2707000000
H	   5.2624100000	  29.5070000000	  49.8889000000
H	   4.5750400000	  30.6889000000	  52.6620000000
H	   5.5279500000	  31.9056000000	  53.3879000000
H	   5.5378900000	  31.7289000000	  51.5504000000
N	  10.1968000000	  25.3210000000	  54.9241000000
S	  11.0232000000	  24.4617000000	  53.9603000000
O	  10.3383000000	  23.5110000000	  53.0815000000
O	  12.0802000000	  25.2505000000	  53.3289000000
C	  11.9393000000	  23.3559000000	  55.0783000000
F	  11.0605000000	  22.7616000000	  55.8838000000
F	  12.9271000000	  23.9272000000	  55.8014000000
F	  12.4964000000	  22.3802000000	  54.3547000000
S	   8.6108300000	  25.3415000000	  55.0132000000
O	   7.9606700000	  24.1002000000	  54.7834000000
O	   8.0872700000	  26.5546000000	  54.5592000000
C	   8.4237800000	  25.3022000000	  56.8110000000
F	   9.1924300000	  26.2276000000	  57.3559000000
F	   7.2103200000	  25.5999000000	  57.1933000000
F	   8.7246700000	  24.1296000000	  57.3343000000
