64

Li	  17.4372000000	  52.1485000000	   9.3589700000
O	  18.8528000000	  52.4163000000	   7.8215400000
O	  19.9208000000	  52.5309000000	   5.8052700000
C	  20.2685000000	  52.2695000000	   7.8926800000
C	  20.8300000000	  53.0308000000	   6.7063600000
C	  18.6954000000	  52.7361000000	   6.4692200000
H	  20.6724000000	  52.6707000000	   8.8877100000
H	  20.6081000000	  51.1929000000	   7.9028400000
H	  20.7252000000	  54.1085000000	   6.9187100000
H	  21.8579000000	  52.7781000000	   6.4381700000
H	  17.9477000000	  52.0639000000	   6.1439000000
H	  18.2611000000	  53.7733000000	   6.1679600000
O	  15.7075000000	  51.8272000000	  10.7080000000
O	  13.8945000000	  51.9247000000	  12.1260000000
C	  16.2282000000	  51.5336000000	  12.0231000000
C	  15.0977000000	  52.1713000000	  12.8876000000
C	  14.3590000000	  51.8211000000	  10.7700000000
H	  16.2677000000	  50.5031000000	  12.1639000000
H	  17.1908000000	  51.9434000000	  12.1144000000
H	  15.1362000000	  51.8089000000	  13.9457000000
H	  15.2240000000	  53.2111000000	  12.9923000000
H	  13.8318000000	  52.5889000000	  10.2631000000
H	  13.9067000000	  50.9429000000	  10.2722000000
O	  19.1021000000	  51.1351000000	  10.4587000000
O	  20.5076000000	  49.6513000000	  11.5037000000
C	  18.9235000000	  49.8677000000	   9.8400100000
C	  20.1105000000	  49.0079000000	  10.3605000000
C	  20.0939000000	  50.9853000000	  11.4152000000
H	  17.8951000000	  49.5303000000	  10.0786000000
H	  18.8553000000	  50.0757000000	   8.7842400000
H	  19.8744000000	  47.9619000000	  10.4521000000
H	  20.8691000000	  49.2080000000	   9.5938400000
H	  20.9812000000	  51.5212000000	  11.2000000000
H	  19.6924000000	  51.2731000000	  12.3644000000
N	  19.3776000000	  55.8846000000	  11.0919000000
S	  20.4430000000	  55.5965000000	   9.9552500000
O	  21.3612000000	  54.5392000000	  10.1731000000
O	  20.0078000000	  55.7138000000	   8.6087900000
C	  21.3508000000	  57.1342000000	  10.1457000000
F	  21.5856000000	  57.3874000000	  11.4269000000
F	  20.6620000000	  58.0983000000	   9.5933700000
F	  22.5534000000	  57.1611000000	   9.5853600000
S	  18.0517000000	  55.0486000000	  11.3256000000
O	  17.7657000000	  54.5469000000	  12.6605000000
O	  17.8034000000	  54.1604000000	  10.2565000000
C	  16.7526000000	  56.2942000000	  11.0979000000
F	  16.7041000000	  57.0985000000	  12.1349000000
F	  16.9128000000	  57.0404000000	  10.0084000000
F	  15.5158000000	  55.7589000000	  11.0032000000
N	  17.0792000000	  48.7037000000	   7.0505300000
S	  17.9140000000	  48.3151000000	   5.8286600000
O	  17.2248000000	  47.3657000000	   4.9370500000
O	  18.7297000000	  49.3351000000	   5.2207400000
C	  19.1920000000	  47.2132000000	   6.5144100000
F	  19.7626000000	  46.3828000000	   5.5911200000
F	  18.8912000000	  46.5485000000	   7.6123000000
F	  20.2544000000	  47.9903000000	   6.8989700000
S	  16.0779000000	  49.9290000000	   7.1847100000
O	  15.5991000000	  50.4537000000	   5.9362200000
O	  16.4260000000	  50.9479000000	   8.1698800000
C	  14.4831000000	  49.2457000000	   7.7707400000
F	  13.7190000000	  50.1779000000	   8.2762900000
F	  13.8686000000	  48.7723000000	   6.7166500000
F	  14.5283000000	  48.3163000000	   8.7112700000
