45

Li	   4.9019900000	  36.8023000000	  34.4247000000
O	   6.2838500000	  37.1124000000	  33.1292000000
O	   7.4706800000	  36.9157000000	  31.3520000000
C	   6.8461200000	  38.4171000000	  33.0122000000
C	   7.6852400000	  38.2244000000	  31.7516000000
C	   7.1823600000	  36.3071000000	  32.5577000000
H	   6.0543800000	  39.1875000000	  32.8869000000
H	   7.4882200000	  38.5007000000	  33.8738000000
H	   7.5505500000	  38.8355000000	  30.9289000000
H	   8.7224400000	  38.2215000000	  32.0454000000
H	   8.1056100000	  36.2253000000	  33.1265000000
H	   6.7467700000	  35.2773000000	  32.3245000000
S	   4.5824300000	  38.6025000000	  35.8398000000
S	   2.6849000000	  37.6867000000	  35.4524000000
C	   4.8171100000	  38.5844000000	  37.6819000000
C	   1.4316100000	  38.8905000000	  35.8437000000
H	   4.1231200000	  39.2617000000	  38.1606000000
H	   4.7051400000	  37.5715000000	  38.0165000000
H	   5.9192400000	  38.8732000000	  37.8108000000
H	   1.3184300000	  39.5407000000	  35.0316000000
H	   0.4717262221	  38.3977000000	  35.9925000000
H	   1.6566900000	  39.4537000000	  36.7690000000
N	   3.0006300000	  37.0067000000	  30.5977000000
S	   2.9849200000	  35.8970000000	  31.7716000000
O	   3.0327200000	  34.5991000000	  31.1121000000
O	   3.7664400000	  36.1078000000	  32.9653000000
C	   1.2769900000	  36.0528000000	  32.3453000000
F	   0.9365670000	  37.2478000000	  32.7724000000
F	   0.9543210000	  35.0985000000	  33.2608000000
F	   0.4341262221	  35.8342000000	  31.3415000000
S	   3.8669800000	  38.3388000000	  30.6844000000
O	   5.0999200000	  38.2689000000	  29.9005000000
O	   3.9503000000	  38.9443000000	  32.0142000000
C	   2.7574900000	  39.4765000000	  29.7834000000
F	   3.3458400000	  40.6406000000	  29.5790000000
F	   2.4843200000	  39.0798000000	  28.5378000000
F	   1.5509600000	  39.7853000000	  30.3644000000
S	  -2.8556737779	  28.0101000000	  35.1875000000
S	  -0.8096737779	  28.3235000000	  34.9154000000
S	  -0.4436737779	  29.5457000000	  33.2238000000
S	   3.4602600000	  32.4114000000	  34.7161000000
S	   5.0886000000	  33.6760000000	  34.0836000000
S	   5.8923100000	  35.0787000000	  35.4694000000
S	   2.1124200000	  32.1172000000	  33.1003000000
S	   0.1164262221	  31.5547000000	  33.6787000000
