25

Li	   5.6991800000	  47.7163000000	  20.6760000000
S	  -3.1048105503	  51.5766000000	  14.3781000000
S	  -0.9637105503	  51.2803000000	  14.0451000000
S	   0.3252894497	  52.5970000000	  15.0657000000
S	   3.4898300000	  50.8289000000	  18.0864000000
S	   5.2625200000	  49.6352000000	  17.9970000000
S	   4.9208600000	  47.7546000000	  18.7779000000
S	   3.5347500000	  52.4133000000	  16.7159000000
S	   2.3392100000	  52.0150000000	  14.9147000000
S	  -1.4942105503	  45.8191000000	  18.9512000000
S	  -2.5653105503	  46.6634000000	  20.5225000000
S	  -1.5809105503	  46.6044000000	  22.3576000000
S	   2.9619200000	  48.6165000000	  21.2903000000
S	   4.3836500000	  49.7627000000	  22.2805000000
S	   6.3623700000	  49.3267000000	  21.8355000000
S	   1.7537400000	  47.6072000000	  22.6765000000
S	  -0.2642105503	  48.2475000000	  22.8774000000
S	  17.3963000000	  49.1470000000	  20.3240000000
S	  15.7115000000	  49.9300000000	  21.3434000000
S	  13.9296000000	  48.7578000000	  20.9921000000
S	   9.2144400000	  48.1904000000	  19.5303000000
S	   8.5396700000	  46.2752000000	  20.0693000000
S	   6.6028200000	  46.0031000000	  21.0077000000
S	  10.4724000000	  49.1252000000	  20.9775000000
S	  12.2804000000	  49.7645000000	  20.0480000000
