48

Li	  25.2303000000	  50.7077000000	  36.6698000000
N	  26.5089000000	  52.1892000000	  36.8457000000
C	  28.2970000000	  53.2909000000	  35.3527000000
C	  27.7540000000	  53.7698000000	  33.9856000000
C	  27.2824000000	  52.6700000000	  36.2090000000
H	  28.7628000000	  54.1770000000	  35.8748000000
H	  29.0640000000	  52.5299000000	  35.1602000000
H	  28.4530000000	  54.6152000000	  33.5026000000
H	  27.5716000000	  52.9287000000	  33.3279000000
H	  26.8055000000	  54.2692000000	  33.9914000000
N	  21.6039000000	  50.2912000000	  37.7492000000
S	  22.7569000000	  49.2468000000	  37.5431000000
O	  22.6075000000	  48.5226000000	  36.3184000000
O	  24.0438000000	  49.6392000000	  37.9498000000
C	  22.3551000000	  47.9297000000	  38.7983000000
F	  21.1735000000	  47.3524000000	  38.6079000000
F	  22.3953000000	  48.3911000000	  40.0290000000
F	  23.2867000000	  46.9724000000	  38.7090000000
S	  21.7457000000	  51.8510000000	  37.7827000000
O	  20.8392000000	  52.5348000000	  36.8840000000
O	  23.0854000000	  52.3907000000	  37.8495000000
C	  21.0720000000	  52.2865000000	  39.4382000000
F	  21.9163000000	  51.7643000000	  40.3411000000
F	  20.9902000000	  53.6397000000	  39.6346000000
F	  19.9544000000	  51.7046000000	  39.7305000000
N	  28.3674000000	  48.2076000000	  34.4659000000
S	  28.3574000000	  49.4763000000	  33.5495000000
O	  27.1469000000	  50.2827000000	  33.4875000000
O	  29.5733000000	  50.2845000000	  33.6299000000
C	  28.5465000000	  48.7448000000	  31.9446000000
F	  27.6479000000	  47.8433000000	  31.6403000000
F	  29.8144000000	  48.2817000000	  31.7745000000
F	  28.4236000000	  49.7305000000	  30.9594000000
S	  27.2367000000	  47.8747000000	  35.5220000000
O	  26.4988000000	  46.6772000000	  35.1210000000
O	  26.4650000000	  48.9863000000	  35.9966000000
C	  28.2248000000	  47.4081000000	  36.9515000000
F	  28.9335000000	  48.3779000000	  37.5245000000
F	  27.3786000000	  46.9824000000	  37.9104000000
F	  29.0612000000	  46.4605000000	  36.5981000000
S	  24.5631000000	  59.0208000000	  27.1554000000
S	  24.8929000000	  57.0792000000	  27.9685000000
S	  23.2704000000	  56.3600000000	  29.1762000000
S	  23.3772000000	  54.9241000000	  34.1311000000
S	  22.8187000000	  52.8438000000	  33.9515000000
S	  24.1536000000	  51.4352000000	  34.9194000000
S	  24.5219000000	  55.5658000000	  32.4907000000
S	  23.6505000000	  56.9445000000	  31.1795000000
