44

Li	  13.4880000000	  50.6260000000	   8.7931200000
O	  16.8624000000	  51.0325000000	  10.7624000000
O	  15.3101000000	  50.9232000000	   9.0777100000
C	  17.0244000000	  49.7961000000	  10.0911000000
C	  16.4022000000	  50.1113000000	   8.6829200000
C	  15.7588000000	  51.7320000000	  10.1790000000
H	  18.0676000000	  49.5342000000	   9.9623200000
H	  16.4483000000	  49.0476000000	  10.6424000000
H	  17.0939000000	  50.6060000000	   7.9589100000
H	  16.0615000000	  49.1781000000	   8.3113300000
H	  15.0605000000	  51.6813000000	  10.9317000000
H	  15.8418000000	  52.7989000000	  10.1065000000
N	  12.9637000000	  50.9475000000	   6.7617400000
C	  11.8403000000	  49.3945000000	   4.9027700000
C	  10.3793000000	  49.6250000000	   4.6314400000
C	  12.4410000000	  50.2756000000	   5.9382000000
H	  12.6073000000	  49.4218000000	   4.0642900000
H	  11.9723000000	  48.3357000000	   5.1628400000
H	  10.0490000000	  50.4545000000	   4.0129800000
H	   9.9359000000	  48.7032000000	   4.1871300000
H	   9.8458700000	  49.9145000000	   5.5505600000
N	  12.1503000000	  46.8686000000	   7.3846700000
S	  13.0361000000	  47.1147000000	   8.6400800000
O	  13.2721000000	  48.5314000000	   8.8647900000
O	  12.6499000000	  46.3585000000	   9.7987600000
C	  14.6562000000	  46.3435000000	   8.1346000000
F	  14.9237000000	  46.6086000000	   6.8834000000
F	  14.6395000000	  45.0406000000	   8.2143300000
F	  15.6112000000	  46.7476000000	   8.9536000000
S	  10.7109000000	  46.2263000000	   7.3361900000
O	   9.9045500000	  46.7144000000	   6.2333200000
O	  10.0861000000	  45.9642000000	   8.6160900000
C	  11.2328000000	  44.5246000000	   6.7562200000
F	  11.9719000000	  43.8107000000	   7.6300200000
F	  10.2236000000	  43.6895000000	   6.4559100000
F	  11.9896000000	  44.5738000000	   5.6387300000
S	  11.7624000000	  49.0075000000	  21.3284000000
S	  11.3347000000	  48.0827000000	  19.3943000000
S	  12.5206000000	  48.8584000000	  17.7920000000
S	  10.3019000000	  50.6587000000	  13.1846000000
S	  11.1529000000	  49.8652000000	  11.5473000000
S	  12.3374000000	  51.2595000000	  10.4160000000
S	  10.3197000000	  49.2948000000	  14.8428000000
S	  11.2924000000	  50.1045000000	  16.5354000000
