29

Li	  52.9206000000	  46.6563000000	  16.7652000000
O	  55.2668000000	  48.6433000000	  14.3441000000
O	  53.3143000000	  47.9272000000	  15.2288000000
C	  54.9288000000	  49.5490000000	  15.3452000000
C	  53.4398000000	  49.2815000000	  15.6209000000
C	  54.1164000000	  47.8792000000	  14.0932000000
H	  55.5075000000	  49.3688000000	  16.2498000000
H	  55.1185000000	  50.5325000000	  15.0848000000
H	  53.0350000000	  49.3825000000	  16.5791000000
H	  52.8101000000	  49.8703000000	  14.9568000000
H	  53.4728000000	  48.1579000000	  13.1997000000
H	  54.3227000000	  46.8014000000	  13.9435000000
N	  54.8478000000	  46.2779000000	  17.3449000000
C	  57.1556000000	  45.5110000000	  16.2549000000
C	  57.2576000000	  45.3737000000	  14.7858000000
C	  55.8433000000	  45.9256000000	  16.8124000000
H	  57.9084000000	  46.3319000000	  16.5201000000
H	  57.3772000000	  44.6045000000	  16.7782000000
H	  58.2434000000	  45.1883000000	  14.3780000000
H	  56.6139000000	  44.5299000000	  14.3588000000
H	  56.9582000000	  46.3147000000	  14.2943000000
S	  51.3834000000	  47.2377000000	  17.9792000000
S	  51.4469000000	  45.1194000000	  17.5112000000
S	  50.9785000000	  44.8092000000	  15.4802000000
S	  54.8745000000	  42.2424000000	  15.1345000000
S	  55.8861000000	  40.5834000000	  14.4081000000
S	  55.0104000000	  38.8920000000	  15.3691000000
S	  53.2639000000	  42.8512000000	  13.8582000000
S	  52.6323000000	  44.7587000000	  14.1512000000
