28

Li	  18.0165000000	  12.2242000000	   0.7329180000
N	  18.0024000000	  10.8386000000	  -0.8478901126
C	  18.4204000000	   8.6454000000	  -2.2238901126
C	  18.7492000000	   7.6046200000	  -1.1848901126
C	  18.1390000000	   9.9075400000	  -1.4876901126
H	  17.5893000000	   8.2543000000	  -2.7993901126
H	  19.2862000000	   8.6934400000	  -2.7915901126
H	  17.9523000000	   7.5221700000	  -0.4946901126
H	  19.1084000000	   6.7044900000	  -1.5453901126
H	  19.6235000000	   7.9370600000	  -0.6818901126
N	  19.5065000000	  13.2086000000	  -0.0936901126
C	  20.7832000000	  13.1591000000	  -2.4273901126
C	  22.3023000000	  13.4444000000	  -2.2615901126
C	  20.0058000000	  13.1625000000	  -1.1369901126
H	  20.6547000000	  12.2150000000	  -3.0224901126
H	  20.2397000000	  13.9894000000	  -2.9693901126
H	  22.4344000000	  14.2942000000	  -1.6366901126
H	  22.7196000000	  12.4749000000	  -1.8387901126
H	  22.7249000000	  13.5753000000	  -3.3000901126
N	  16.9926000000	  13.1337000000	   1.8279100000
C	  15.2894000000	  14.6209000000	   3.1225800000
C	  15.6146000000	  16.1149000000	   3.2293100000
C	  16.2473000000	  13.8115000000	   2.3854800000
H	  14.2575000000	  14.6014000000	   2.7563600000
H	  15.2772000000	  14.1940000000	   4.1446000000
H	  16.1687000000	  16.3605000000	   4.1270400000
H	  16.2173000000	  16.4500000000	   2.3355800000
H	  14.6893000000	  16.6488000000	   3.3009000000
