18

Li	   2.5042400000	  34.6671000000	  36.1640000000
N	   1.8844000000	  32.7274000000	  35.7209000000
C	   0.3862894497	  30.6204000000	  36.1577000000
C	  -0.8520105503	  30.8662000000	  37.0244000000
C	   1.1913100000	  31.8211000000	  35.8927000000
H	  -0.0772105503	  30.3595000000	  35.2259000000
H	   0.9853010000	  29.7819000000	  36.5575000000
H	  -1.2565105503	  29.9216000000	  37.4671000000
H	  -0.7226105503	  31.5310000000	  37.8519000000
H	  -1.6634105503	  31.4898000000	  36.4646000000
S	   1.0234100000	  36.4147000000	  36.2717000000
S	  -0.3373105503	  34.9759000000	  37.1915000000
S	   0.0324894497	  34.4575000000	  39.1848000000
S	   4.4330800000	  33.3251000000	  37.7716000000
S	   4.7944300000	  35.0379000000	  36.5733000000
S	   3.9095200000	  34.7968000000	  34.6790000000
S	   3.2107600000	  33.5614000000	  39.5210000000
S	   1.2486700000	  32.8498000000	  39.2560000000
