27

Li	   4.8402900000	  16.2705000000	  19.2582000000
N	   5.9381900000	  17.9860000000	  18.8571000000
C	   8.1407600000	  19.2631000000	  18.7387000000
C	   9.3980900000	  18.5345000000	  18.3561000000
C	   6.8902400000	  18.5655000000	  18.7561000000
H	   7.9617400000	  20.1309000000	  18.0514000000
H	   8.2855500000	  19.7112000000	  19.7098000000
H	   9.3280500000	  17.5083000000	  18.8214000000
H	   9.3343800000	  18.1482000000	  17.3516000000
H	  10.3171000000	  19.1293000000	  18.4916000000
N	   3.4854100000	  15.6156000000	  17.9977000000
C	   1.2415100000	  14.5189000000	  17.2347000000
C	   0.4252894497	  15.5449000000	  16.4296000000
C	   2.4751700000	  15.1138000000	  17.6623000000
H	   1.2981600000	  13.6022000000	  16.6602000000
H	   0.6704970000	  14.3027000000	  18.1487000000
H	   0.8559340000	  15.9534000000	  15.5387000000
H	  -0.4578105503	  15.1390000000	  16.0119000000
H	   0.3548894497	  16.4400000000	  16.9986000000
S	  -5.2746105503	  16.1630000000	  22.2816000000
S	  -3.6568105503	  14.8676000000	  22.5007000000
S	  -2.2475105503	  14.8080000000	  20.9032000000
S	   2.7592000000	  14.1734000000	  20.8044000000
S	   4.6886300000	  14.1153000000	  21.7290000000
S	   5.7199300000	  15.9092000000	  21.2690000000
S	   1.0721000000	  14.8193000000	  21.9048000000
S	  -0.6348105503	  13.7287000000	  21.6216000000
