38

Li	  40.5071000000	   4.2753200000	  17.0936000000
O	  41.3590000000	   0.5509974802	  18.6713000000
O	  41.0131000000	   2.6364000000	  17.8373000000
C	  42.4389000000	   0.9035260000	  17.8154000000
C	  41.7811000000	   1.9447400000	  16.8725000000
C	  40.5824000000	   1.7290900000	  18.8035000000
H	  43.2793000000	   1.2265500000	  18.4271000000
H	  42.7018000000	  -0.0297025198	  17.3140000000
H	  42.5202000000	   2.4899200000	  16.3321000000
H	  41.1418000000	   1.4041000000	  16.1268000000
H	  39.6182000000	   1.3366300000	  18.5941000000
H	  40.5449000000	   2.0393900000	  19.8256000000
N	  39.3230000000	   4.8774300000	  18.5065000000
C	  36.6278000000	   4.9047800000	  18.6093000000
C	  36.1643000000	   3.4280300000	  18.6188000000
C	  38.1477000000	   4.8959500000	  18.5211000000
H	  36.3829000000	   5.5491600000	  19.4757000000
H	  36.2436000000	   5.4146100000	  17.7295000000
H	  36.6356000000	   2.9952000000	  19.5158000000
H	  35.0506000000	   3.3885300000	  18.7025000000
H	  36.6435000000	   2.8261300000	  17.8307000000
N	  41.6420000000	   5.8728900000	  16.3203000000
C	  41.8159000000	   8.4969800000	  15.7459000000
C	  41.6255000000	   9.3295700000	  17.0219000000
C	  41.7212000000	   7.0348600000	  16.0593000000
H	  42.7789000000	   8.6669500000	  15.3416000000
H	  41.0673000000	   8.5721100000	  14.9553000000
H	  42.2289000000	   9.0245500000	  17.8368000000
H	  41.6712000000	  10.3869000000	  16.8871000000
H	  40.6648000000	   9.1468700000	  17.4193000000
S	  39.2040000000	   3.3310700000	  15.5125000000
S	  37.7036000000	   4.8843300000	  15.2254000000
S	  35.7035000000	   4.3631600000	  14.9051000000
S	  32.6942000000	   6.4904900000	  12.4227000000
S	  31.3294000000	   6.1805500000	  10.7457000000
S	  30.3514000000	   4.3095100000	  11.1647000000
S	  34.7456000000	   6.1476400000	  12.0708000000
S	  35.2692000000	   4.3184500000	  12.8231000000
