49

Li	  18.2348000000	  36.7800000000	  40.2344000000
N	  20.1059000000	  37.4824000000	  40.4612000000
C	  22.3557000000	  38.5929000000	  41.3849000000
C	  23.2536000000	  37.6107000000	  42.1397000000
C	  21.0913000000	  38.0066000000	  40.8412000000
H	  22.9775000000	  39.0188000000	  40.5896000000
H	  22.0223000000	  39.3446000000	  42.1234000000
H	  24.2221000000	  38.0585000000	  42.4697000000
H	  22.8356000000	  37.2318000000	  43.1258000000
H	  23.4974000000	  36.7098000000	  41.5761000000
N	  16.4427000000	  37.3877000000	  41.0812000000
C	  14.9128000000	  39.5940000000	  41.0282000000
C	  14.7448000000	  40.2909000000	  39.6622000000
C	  15.7633000000	  38.3509000000	  41.0892000000
H	  13.9640000000	  39.2167000000	  41.4074000000
H	  15.2808000000	  40.3161000000	  41.8112000000
H	  14.6018000000	  39.4574000000	  38.9622000000
H	  13.7932000000	  40.8966000000	  39.6356000000
H	  15.6447000000	  40.9478000000	  39.3251000000
N	  16.9079000000	  36.0459000000	  35.9811000000
S	  16.7599000000	  35.3469000000	  37.3913000000
O	  16.8409000000	  33.9286000000	  37.2721000000
O	  17.3408000000	  36.0712000000	  38.5355000000
C	  14.9800000000	  35.6093000000	  37.7498000000
F	  14.6752000000	  34.9613000000	  38.8717000000
F	  14.3139000000	  35.1736000000	  36.7003000000
F	  14.7855000000	  36.9058000000	  37.9774000000
S	  17.3629000000	  37.4662000000	  35.6892000000
O	  17.4440000000	  38.3191000000	  36.8511000000
O	  16.7936000000	  37.9463000000	  34.4344000000
C	  19.1374000000	  37.2615000000	  35.2206000000
F	  19.6028000000	  38.3756000000	  34.8317000000
F	  19.8042000000	  36.8590000000	  36.2687000000
F	  19.3887000000	  36.3800000000	  34.3004000000
N	  20.8257000000	  34.5193000000	  41.4874000000
S	  21.8252000000	  33.6053000000	  40.7293000000
O	  23.1748000000	  33.7800000000	  41.1290000000
O	  21.3243000000	  32.2867000000	  40.5334000000
C	  21.7288000000	  34.3519000000	  39.0565000000
F	  21.8999000000	  35.6333000000	  39.0378000000
F	  20.5200000000	  34.1977000000	  38.4412000000
F	  22.6766000000	  33.8619000000	  38.2349000000
S	  19.3129000000	  34.2984000000	  41.9093000000
O	  19.0292000000	  32.9730000000	  42.3930000000
O	  18.3925000000	  34.9227000000	  40.9865000000
C	  19.1887000000	  35.3095000000	  43.4221000000
F	  17.9553000000	  35.1817000000	  43.9134000000
F	  19.8971000000	  34.8455000000	  44.5036000000
F	  19.6198000000	  36.5762000000	  43.3604000000
