42

Li	  32.6860000000	  39.0659000000	  49.6913000000
O	  32.5014000000	  41.9446000000	  52.4605000000
O	  33.0557000000	  40.8559000000	  50.4196000000
C	  33.8623000000	  42.2709000000	  52.1922000000
C	  34.2608000000	  41.2393000000	  51.0831000000
C	  32.0324000000	  41.5763000000	  51.1302000000
H	  33.8138000000	  43.3065000000	  51.8215000000
H	  34.5429000000	  42.2153000000	  53.1140000000
H	  34.7336000000	  41.7987000000	  50.3714000000
H	  34.8647000000	  40.3717000000	  51.4866000000
H	  31.1322000000	  41.0208000000	  51.2321000000
H	  31.7878000000	  42.4096000000	  50.6011000000
O	  34.0484000000	  39.1404000000	  48.2035000000
O	  36.0362000000	  39.4363000000	  47.1380000000
C	  33.8031000000	  38.6713000000	  46.8787000000
C	  35.2115000000	  38.6652000000	  46.1966000000
C	  35.1112000000	  39.9792000000	  47.9690000000
H	  33.2604000000	  37.7125000000	  46.9383000000
H	  33.1657000000	  39.3434000000	  46.3476000000
H	  35.5186000000	  37.6316000000	  45.9769000000
H	  35.1552000000	  39.1746000000	  45.2258000000
H	  34.7165000000	  40.8623000000	  47.5329000000
H	  35.6450000000	  40.2280000000	  48.8775000000
O	  33.0993000000	  37.9772000000	  51.2177000000
O	  34.5289000000	  37.8760000000	  53.0328000000
C	  34.2000000000	  37.1131000000	  50.8307000000
C	  34.8922000000	  36.8332000000	  52.1516000000
C	  33.2247000000	  38.2607000000	  52.5797000000
H	  33.8306000000	  36.3584000000	  50.1882000000
H	  34.7723000000	  37.7985000000	  50.2025000000
H	  34.4334000000	  35.9146000000	  52.5885000000
H	  35.9526000000	  36.7745000000	  51.9448000000
H	  33.0378000000	  39.3767000000	  52.7221000000
H	  32.4532000000	  37.6344000000	  53.0770000000
S	  30.8119000000	  39.2217000000	  48.6034000000
S	  30.9627000000	  37.1874000000	  49.3293000000
S	  30.8647000000	  35.6616000000	  47.8142000000
S	  35.9058000000	  34.8392000000	  48.7231000000
S	  37.5615000000	  36.0136000000	  48.0376000000
S	  37.9772000000	  37.5497000000	  49.4825000000
S	  34.3069000000	  34.6959000000	  47.4117000000
S	  32.3432000000	  34.3126000000	  48.3393000000
