36

Li	  42.1829000000	  36.6610000000	  11.6311000000
O	  40.6986000000	  39.0075000000	   8.7176700000
O	  41.8243000000	  37.7368000000	  10.1321000000
C	  41.6358000000	  38.4015000000	   7.9052800000
C	  42.5280000000	  37.5697000000	   8.9093200000
C	  41.1819000000	  38.8998000000	  10.0387000000
H	  41.1827000000	  37.6954000000	   7.1770900000
H	  42.3137000000	  39.1515000000	   7.3739200000
H	  42.7792000000	  36.5585000000	   8.6926500000
H	  43.4303000000	  38.0533000000	   9.1308700000
H	  41.7716000000	  39.7804000000	  10.3700000000
H	  40.4113000000	  38.8374000000	  10.7748000000
N	  43.6928000000	  37.3413000000	  12.6470000000
C	  45.2620000000	  39.4716000000	  12.1661000000
C	  44.4719000000	  40.7148000000	  12.3095000000
C	  44.4089000000	  38.2733000000	  12.4505000000
H	  45.9771000000	  39.3596000000	  12.9793000000
H	  45.8041000000	  39.3352000000	  11.2137000000
H	  43.6490000000	  40.6783000000	  13.0488000000
H	  45.0194000000	  41.5866000000	  12.6242000000
H	  43.8375000000	  40.9644000000	  11.4429000000
N	  39.9793000000	  38.1066000000	  14.5322000000
S	  40.7695000000	  39.4712000000	  14.3993000000
O	  41.4131000000	  39.5178000000	  13.1239000000
O	  40.1737000000	  40.6498000000	  14.9652000000
C	  42.2559000000	  39.1732000000	  15.4890000000
F	  43.2441000000	  40.0586000000	  15.3021000000
F	  42.7823000000	  37.9291000000	  15.2802000000
F	  41.8997000000	  39.2654000000	  16.7479000000
S	  39.4509000000	  37.2266000000	  13.3513000000
O	  40.4678000000	  36.4001000000	  12.7303000000
O	  38.4849000000	  37.9106000000	  12.5496000000
C	  38.4598000000	  35.9853000000	  14.1475000000
F	  37.4099000000	  36.4712000000	  14.8327000000
F	  37.9744000000	  35.1776000000	  13.2309000000
F	  39.1794000000	  35.2122000000	  14.9313000000
