51

Li	  25.9552000000	  49.1539000000	  38.5079000000
O	  28.8137000000	  48.1318000000	  41.2340000000
O	  27.2534000000	  48.7868000000	  39.7461000000
C	  28.1712000000	  49.2314000000	  41.8255000000
C	  27.4931000000	  49.8581000000	  40.6642000000
C	  28.0951000000	  47.7898000000	  40.1611000000
H	  27.3718000000	  48.9003000000	  42.4806000000
H	  28.8883000000	  49.9073000000	  42.2948000000
H	  26.5511000000	  50.3167000000	  40.9436000000
H	  28.1225000000	  50.5408000000	  40.0430000000
H	  28.6492000000	  47.4639000000	  39.3100000000
H	  27.4193000000	  46.9764000000	  40.3631000000
N	  26.1445000000	  50.9590000000	  37.9093000000
C	  24.9135000000	  52.4410000000	  36.0667000000
C	  25.2478000000	  53.9069000000	  36.4246000000
C	  25.5762000000	  51.5459000000	  37.0339000000
H	  25.1844000000	  52.1023000000	  35.1005000000
H	  23.8231000000	  52.3306000000	  36.0660000000
H	  25.0228000000	  54.6070000000	  35.5873000000
H	  24.7237000000	  54.2418000000	  37.3143000000
H	  26.3230000000	  53.8876000000	  36.4898000000
N	  24.4699000000	  47.4745000000	  40.7336000000
S	  23.7918000000	  47.2434000000	  39.3552000000
O	  22.3227000000	  47.0520000000	  39.3184000000
O	  24.4365000000	  48.0913000000	  38.3949000000
C	  24.4491000000	  45.5534000000	  38.9465000000
F	  24.0366000000	  44.6198000000	  39.8407000000
F	  25.7478000000	  45.6091000000	  38.9566000000
F	  24.1118000000	  45.1972000000	  37.7215000000
S	  23.9138000000	  48.2955000000	  41.9400000000
O	  22.5004000000	  48.6206000000	  41.9404000000
O	  24.9078000000	  49.1694000000	  42.3856000000
C	  24.0243000000	  46.9281000000	  43.2173000000
F	  25.2697000000	  46.4945000000	  43.3762000000
F	  23.6640000000	  47.4064000000	  44.4099000000
F	  23.1977000000	  45.9075000000	  42.9408000000
N	  27.7899000000	  47.5446000000	  34.4071000000
S	  27.6862000000	  48.6432000000	  35.5166000000
O	  27.5824000000	  49.9598000000	  34.9194000000
O	  26.9156000000	  48.2704000000	  36.6295000000
C	  29.4679000000	  48.5127000000	  36.1311000000
F	  30.2795000000	  48.4101000000	  35.0859000000
F	  29.7180000000	  47.4786000000	  36.8916000000
F	  29.8568000000	  49.5885000000	  36.8100000000
S	  26.7722000000	  47.2729000000	  33.2908000000
O	  27.3280000000	  46.6861000000	  32.1431000000
O	  25.7950000000	  48.3272000000	  33.1058000000
C	  25.8180000000	  45.9231000000	  34.0274000000
F	  25.2808000000	  46.3459000000	  35.2035000000
F	  24.8349000000	  45.4748000000	  33.2193000000
F	  26.5187000000	  44.8188000000	  34.2554000000
