32

Li	  21.3340000000	   4.8333700000	  11.7575000000
O	  25.0510000000	   4.7312500000	  10.9202000000
O	  23.0704000000	   5.4388500000	  11.5199000000
C	  25.3360000000	   5.7728600000	  11.7760000000
C	  23.9606000000	   6.3152500000	  12.2132000000
C	  23.8422000000	   5.0434200000	  10.4123000000
H	  25.8497000000	   5.4696500000	  12.7214000000
H	  25.9469000000	   6.5533900000	  11.2656000000
H	  23.7534000000	   6.4988700000	  13.2467000000
H	  23.7863000000	   7.2275900000	  11.7146000000
H	  23.8270000000	   6.0060400000	   9.8128000000
H	  23.5146000000	   4.1481600000	   9.8938100000
O	  21.2224000000	   2.9238000000	  11.9208000000
O	  20.9472000000	   0.7444460000	  12.1446000000
C	  19.8900000000	   2.6149800000	  12.2282000000
C	  19.6444000000	   1.1775400000	  11.8392000000
C	  21.8510000000	   1.7288500000	  11.6926000000
H	  19.8554000000	   2.7147800000	  13.3149000000
H	  19.1952000000	   3.3007200000	  11.7613000000
H	  18.7668000000	   0.7255560000	  12.3954000000
H	  19.4205000000	   0.9710490000	  10.7616000000
H	  22.0782000000	   1.6712700000	  10.5939000000
H	  22.7532000000	   1.6074600000	  12.2725000000
N	  20.1973000000	   5.8408800000	  12.9856000000
C	  20.7814000000	   8.2417900000	  13.8043000000
C	  20.4186000000	   9.2273900000	  12.6873000000
C	  20.4586000000	   6.9281400000	  13.3815000000
H	  20.1102000000	   8.6258000000	  14.5961000000
H	  21.8209000000	   8.3007600000	  14.0118000000
H	  20.6170000000	   8.8493700000	  11.6825000000
H	  19.3641000000	   9.5263000000	  12.6030000000
H	  21.0028000000	  10.1014000000	  12.9246000000
