43

Li	  33.1324000000	  38.1314000000	   3.9657300000
N	  31.5707000000	  38.7896000000	   4.8486200000
C	  29.2343000000	  37.7086000000	   4.8703000000
C	  28.3908000000	  37.7242000000	   6.0693200000
C	  30.5260000000	  38.3280000000	   4.8491100000
H	  28.4274000000	  38.1121000000	   4.2106400000
H	  29.4222000000	  36.7122000000	   4.6360100000
H	  27.7037000000	  36.8737000000	   6.1437600000
H	  28.9986000000	  37.4149000000	   6.9578200000
H	  27.7935000000	  38.6233000000	   6.1460600000
N	  32.9183000000	  37.7325000000	   2.0650800000
C	  31.4411000000	  36.9008000000	   0.0592098874
C	  31.8032000000	  35.5309000000	  -0.4685901126
C	  32.3183000000	  37.3393000000	   1.1463900000
H	  30.4206000000	  37.0004000000	   0.5124098874
H	  31.6124000000	  37.6312000000	  -0.6993901126
H	  31.7968000000	  34.7614000000	   0.3572098874
H	  31.1028000000	  35.2319000000	  -1.3009901126
H	  32.8041000000	  35.4413000000	  -0.7901901126
N	  34.6955000000	  39.3375000000	   4.0353200000
C	  36.4656000000	  39.1342000000	   5.9938000000
C	  35.7744000000	  38.8436000000	   7.3879500000
C	  35.4957000000	  39.2462000000	   4.8711000000
H	  36.9432000000	  38.1920000000	   5.8155600000
H	  37.0822000000	  40.0124000000	   5.8384600000
H	  36.4626000000	  38.3120000000	   8.0395200000
H	  35.4582000000	  39.6725000000	   7.8745200000
H	  34.8810000000	  38.1585000000	   7.2671800000
N	  34.0229000000	  34.0714000000	   4.3708300000
S	  35.4463000000	  34.1122000000	   3.7028900000
O	  36.0366000000	  35.4349000000	   3.5477800000
O	  36.3663000000	  33.0854000000	   4.1100100000
C	  34.9992000000	  33.5728000000	   2.0139600000
F	  36.0490000000	  33.6255000000	   1.2059200000
F	  34.0770000000	  34.2970000000	   1.4248400000
F	  34.5296000000	  32.3460000000	   1.9900600000
S	  33.1498000000	  35.2399000000	   4.9489200000
O	  31.8111000000	  35.2589000000	   4.4477100000
O	  33.7713000000	  36.5333000000	   5.0378900000
C	  32.8996000000	  34.7428000000	   6.6557400000
F	  33.9915000000	  34.4851000000	   7.3566000000
F	  32.2546000000	  35.6878000000	   7.4204100000
F	  32.1897000000	  33.6949000000	   6.8646500000
