19

Li	  52.3584000000	   4.2310800000	  56.6246000000
N	  54.2068000000	   3.6398000000	  57.1820000000
C	  55.8618000000	   2.2932900000	  58.7184000000
C	  57.2372000000	   2.9235000000	  58.9123000000
C	  54.9662000000	   3.0978200000	  57.8932000000
H	  55.2357000000	   2.1965600000	  59.5829681126
H	  55.9506000000	   1.2880600000	  58.2954000000
H	  57.3516000000	   3.7660900000	  58.2576000000
H	  57.5168000000	   3.1756000000	  59.9194301126
H	  57.9587000000	   2.2282400000	  58.5600000000
N	  50.5779000000	   3.4768700000	  56.4152000000
C	  48.4981000000	   1.8763900000	  56.5264000000
C	  47.9387000000	   1.5228400000	  55.1174000000
C	  49.6556000000	   2.7768700000	  56.4891000000
H	  48.7802000000	   1.0661000000	  57.1559000000
H	  47.7388000000	   2.4463300000	  57.0542000000
H	  46.9289000000	   1.1311400000	  55.2566000000
H	  47.9165000000	   2.4907100000	  54.6031000000
H	  48.4690000000	   0.7564290000	  54.5025000000
