46

Li	  38.1767000000	  39.9582000000	  46.8538000000
O	  40.2231000000	  43.4141000000	  46.8965000000
O	  39.5583000000	  41.3075000000	  47.2586000000
C	  39.9808000000	  43.4202000000	  48.2881000000
C	  39.6661000000	  41.9415000000	  48.4698000000
C	  40.2911000000	  42.0901000000	  46.3921000000
H	  40.7506000000	  43.7941000000	  48.9689000000
H	  39.1176000000	  44.0112000000	  48.4385000000
H	  40.3214000000	  41.3971000000	  49.1874000000
H	  38.7224000000	  41.9120000000	  48.9534000000
H	  39.7463000000	  42.1387000000	  45.4341000000
H	  41.3348000000	  41.7864000000	  46.2619000000
O	  38.9598000000	  38.3654000000	  46.6071000000
O	  40.3203000000	  36.5746000000	  47.1498000000
C	  38.6267000000	  37.2684000000	  45.7833000000
C	  39.1253000000	  36.0771000000	  46.5197000000
C	  40.0486000000	  37.9444000000	  47.4337000000
H	  37.5863000000	  37.1692000000	  45.5168000000
H	  39.1260000000	  37.4417000000	  44.7914000000
H	  38.4146000000	  35.7701000000	  47.2841000000
H	  39.2598000000	  35.1998000000	  45.8576000000
H	  40.8279000000	  38.6668000000	  47.1532000000
H	  39.8070000000	  38.1186000000	  48.4854000000
N	  36.7250000000	  40.8491000000	  43.0754000000
S	  38.1042000000	  40.1579000000	  42.8914000000
O	  38.8618000000	  40.8538000000	  41.8499000000
O	  38.8409000000	  39.7453000000	  44.0471000000
C	  37.7230000000	  38.5221000000	  42.1620000000
F	  36.9783000000	  38.5662000000	  41.0780000000
F	  37.1087000000	  37.8464000000	  43.0215000000
F	  38.7610000000	  37.8052000000	  41.8807000000
S	  36.0258000000	  41.1690000000	  44.4174000000
O	  35.2945000000	  42.4241000000	  44.4497000000
O	  36.8254000000	  40.7601000000	  45.5390000000
C	  34.7094000000	  39.8608000000	  44.3603000000
F	  33.7706000000	  40.1143000000	  45.2499000000
F	  34.0340000000	  39.7779000000	  43.2185000000
F	  35.1551000000	  38.6152000000	  44.5780000000
S	  37.0907000000	  39.5298000000	  48.7441000000
S	  36.0463000000	  37.6497000000	  49.0958000000
S	  35.5921000000	  36.6809000000	  47.2682000000
S	  37.7652000000	  32.6560000000	  48.2030000000
S	  39.5441000000	  31.8819000000	  47.2226000000
S	  41.2072000000	  33.2379000000	  47.0617000000
S	  36.4127000000	  33.3145000000	  46.7881000000
S	  34.9750000000	  34.6485000000	  47.5910000000
