56

Li	  12.4971000000	  47.5029000000	  37.6326000000
O	  12.8520000000	  47.8955000000	  41.6575000000
O	  13.7976000000	  47.7483000000	  39.6249000000
C	  13.1818000000	  46.5169000000	  41.5756000000
C	  14.0275000000	  46.4979000000	  40.3290000000
C	  13.2696000000	  48.6012000000	  40.5542000000
H	  13.8616000000	  46.1066000000	  42.3509000000
H	  12.3063000000	  45.8064000000	  41.4676000000
H	  15.0739000000	  46.5635000000	  40.5740000000
H	  13.8250000000	  45.6977000000	  39.6891000000
H	  12.4124000000	  49.0424000000	  40.1734000000
H	  13.9440000000	  49.4143000000	  40.6618000000
O	  11.4057000000	  46.9796000000	  35.4841000000
O	  11.2296000000	  45.4384000000	  33.8985000000
C	   9.9935600000	  46.7021000000	  35.3005000000
C	   9.9436700000	  45.6308000000	  34.1930000000
C	  11.8992000000	  46.5424000000	  34.2997000000
H	   9.4905600000	  46.2054000000	  36.1614000000
H	   9.5334300000	  47.6722000000	  35.0604000000
H	   9.5009800000	  44.6414000000	  34.4683000000
H	   9.4376800000	  46.1556000000	  33.3200000000
H	  11.6174000000	  47.2885000000	  33.5301000000
H	  12.9576000000	  46.3430000000	  34.2253000000
N	  11.3004000000	  46.7284000000	  38.8404000000
C	   9.0724200000	  46.9932000000	  40.1400000000
C	   9.4321800000	  47.1880000000	  41.6387000000
C	  10.2692000000	  46.8113000000	  39.3805000000
H	   8.7272000000	  48.0125000000	  39.8636000000
H	   8.4344900000	  46.2464000000	  39.8326000000
H	   8.6195300000	  47.6642000000	  42.2517000000
H	   9.7584200000	  46.2676000000	  42.1579000000
H	  10.2484000000	  47.8271000000	  41.6893000000
N	  12.3290000000	  49.3872000000	  36.9678000000
C	  13.0937000000	  51.6490000000	  35.9355000000
C	  13.4487000000	  52.5721000000	  37.1317000000
C	  12.7006000000	  50.3495000000	  36.4689000000
H	  14.0490000000	  51.5934000000	  35.3246000000
H	  12.3143000000	  51.9684000000	  35.2662000000
H	  13.9458000000	  53.4429000000	  36.6282000000
H	  12.5266000000	  52.8427000000	  37.6218000000
H	  14.1244000000	  52.0122000000	  37.7452000000
N	  15.2297000000	  48.0820000000	  34.8314000000
S	  15.4128000000	  46.9067000000	  35.8678000000
O	  14.3507000000	  46.7479000000	  36.8260000000
O	  15.8992000000	  45.6955000000	  35.2242000000
C	  16.7862000000	  47.6306000000	  36.8823000000
F	  17.1228000000	  46.7064000000	  37.8080000000
F	  16.5013000000	  48.7866000000	  37.5346000000
F	  17.8312000000	  47.8571000000	  36.1708000000
S	  15.8027000000	  48.1886000000	  33.3795000000
O	  15.5152000000	  47.0313000000	  32.5462000000
O	  17.0646000000	  48.8609000000	  33.1957000000
C	  14.7888000000	  49.4007000000	  32.7440000000
F	  14.9724000000	  50.6063000000	  33.2525000000
F	  15.0685000000	  49.5132000000	  31.4259000000
F	  13.4949000000	  49.1235000000	  32.8505000000
