27

Li	  27.8810000000	  32.9164000000	  53.2201000000
N	  28.7781000000	  34.9385000000	  53.3631000000
C	  28.6790000000	  37.4730000000	  54.1766000000
C	  29.0596000000	  37.7501000000	  55.6409000000
C	  28.7391000000	  36.0368000000	  53.6999000000
H	  29.3518000000	  38.0665000000	  53.5939000000
H	  27.7358000000	  37.9031000000	  53.9162000000
H	  28.1595000000	  37.4746000000	  56.2484000000
H	  29.8849000000	  37.0891000000	  55.8574000000
H	  29.3920000000	  38.7566000000	  55.7668000000
N	  27.2000000000	  33.0555000000	  51.5265000000
C	  26.6611000000	  34.0875000000	  49.1325000000
C	  25.9615000000	  33.1667000000	  48.1966000000
C	  26.9628000000	  33.5452000000	  50.4730000000
H	  25.9380000000	  34.8923000000	  49.3609000000
H	  27.5761000000	  34.4816000000	  48.7625000000
H	  25.0280000000	  32.6905000000	  48.5298000000
H	  25.5595000000	  33.6990000000	  47.2980000000
H	  26.6434000000	  32.3626000000	  47.9086000000
S	  29.1372000000	  31.4190000000	  53.9225000000
S	  27.5000000000	  31.6405000000	  55.2832000000
S	  25.8837000000	  32.6553000000	  54.4597000000
S	  22.7820000000	  36.1459000000	  56.4446000000
S	  21.1618000000	  34.7813000000	  56.2163000000
S	  19.3749000000	  35.9092000000	  55.8834000000
S	  24.6442000000	  35.1239000000	  56.6503000000
S	  25.6753000000	  34.7693000000	  54.8751000000
