26

Li	  13.0006000000	  44.8020000000	   7.1780500000
N	  14.3088000000	  44.9187000000	   5.5226100000
C	  14.9514000000	  43.5639000000	   3.3687700000
C	  14.3460000000	  44.3279000000	   2.1641400000
C	  14.6289000000	  44.2785000000	   4.6293400000
H	  16.0231000000	  43.5430000000	   3.2201200000
H	  14.5055000000	  42.6094000000	   3.4385000000
H	  14.6628000000	  43.8663000000	   1.2582300000
H	  13.2458000000	  44.3451000000	   2.2575400000
H	  14.5186000000	  45.4513000000	   2.0898400000
S	  13.5040000000	  36.5359000000	  -0.6088901126
S	  13.5566000000	  38.6540000000	  -0.5720901126
S	  12.3510000000	  39.4975000000	   0.8973710000
S	  13.7390000000	  40.2336000000	   6.0676700000
S	  12.6352000000	  40.8988000000	   7.8019600000
S	  13.0204000000	  42.8897000000	   8.4439800000
S	  12.5785000000	  40.2892000000	   4.2425800000
S	  13.6608000000	  40.2309000000	   2.3605700000
S	  11.3815000000	  46.1613000000	   7.2171800000
S	  12.6957000000	  46.6339000000	   8.9072200000
S	  14.6133000000	  47.4030000000	   8.3154800000
S	  18.8852000000	  46.8460000000	  10.5855000000
S	  20.8387000000	  46.1117000000	  10.8939000000
S	  20.9726000000	  44.2381000000	  11.8109000000
S	  18.1484000000	  46.8232000000	   8.5750600000
S	  16.2019000000	  45.9487000000	   8.3069400000
