36

Li	  15.1694000000	  29.0568000000	  17.4998000000
N	  13.1658000000	  28.0381000000	  17.1088000000
C	  11.6092000000	  25.8865000000	  17.3644000000
C	  11.9418000000	  24.7070000000	  16.4115000000
C	  12.4835000000	  27.0884000000	  17.2011000000
H	  11.6148000000	  25.5633000000	  18.4576000000
H	  10.5914000000	  26.2228000000	  17.1064000000
H	  11.9903000000	  25.0125000000	  15.3940000000
H	  12.9141000000	  24.3480000000	  16.7491000000
H	  11.2247000000	  23.9281000000	  16.5146000000
N	  14.7059000000	  30.2466000000	  15.7853000000
C	  12.6785000000	  31.8021000000	  15.4183000000
C	  12.1173000000	  31.4195000000	  14.1057000000
C	  13.8062000000	  30.9107000000	  15.6154000000
H	  11.9649000000	  31.6637000000	  16.1642000000
H	  13.0421000000	  32.7933000000	  15.5150000000
H	  11.8264000000	  30.3441000000	  14.1153000000
H	  11.3106000000	  32.0475000000	  13.7751000000
H	  12.9036000000	  31.3685000000	  13.3082000000
N	  16.1460000000	  27.1898000000	  17.5822000000
C	  18.5223000000	  27.3987000000	  18.5645000000
C	  18.4753000000	  26.8395000000	  20.0145000000
C	  17.2084000000	  27.2814000000	  18.0346000000
H	  19.0257000000	  26.8494000000	  17.8304000000
H	  18.8254000000	  28.3790000000	  18.4057000000
H	  17.7493000000	  27.4614000000	  20.6083000000
H	  18.1734000000	  25.7989000000	  19.9468000000
H	  19.4165000000	  26.9590000000	  20.4566000000
S	   6.7846000000	  30.5547000000	  15.2425000000
S	   8.8704000000	  30.7493000000	  15.5022000000
S	   9.5796500000	  29.6757000000	  17.2523000000
S	  13.2127000000	  30.8810000000	  20.2884000000
S	  14.7440000000	  29.5997000000	  19.8100000000
S	  16.2581000000	  30.5756000000	  18.6060000000
S	  11.2056000000	  29.9546000000	  20.3884000000
S	   9.9034200000	  30.9061000000	  18.9641000000
