40

Li	   8.0285100000	  16.8451000000	   5.5495800000
S	   6.0228400000	  18.9082000000	   3.8264900000
F	   7.3040000000	  18.9520000000	   1.5490800000
F	   6.7314300000	  17.0472000000	   2.1485900000
F	   5.2254700000	  18.4081000000	   1.4285800000
O	   4.5481600000	  18.9817000000	   4.0447100000
O	   6.8212600000	  18.1609000000	   4.8367200000
N	   6.5865600000	  20.5870000000	   3.8326400000
C	   6.3040600000	  18.3312000000	   2.1183800000
C	   5.9419500000	  21.5671000000	   2.9431300000
C	   8.0066600000	  20.8827000000	   4.3448200000
H	   8.6413500000	  21.1481000000	   3.5321300000
H	   8.3368100000	  20.0326000000	   4.8866800000
H	   7.9990500000	  21.6735000000	   5.0845000000
H	   4.8952000000	  21.2524000000	   2.6583000000
H	   6.6067900000	  21.7077000000	   2.0868900000
H	   5.8385200000	  22.4672000000	   3.5400800000
N	   8.6957000000	  18.7085000000	   8.9587600000
S	   9.6771700000	  17.9953000000	   7.9799000000
O	  10.4975000000	  16.9836000000	   8.5916200000
O	   9.1640500000	  17.8432000000	   6.6585800000
C	  10.9085000000	  19.3075000000	   7.6575600000
F	  12.1219000000	  18.7629000000	   7.4357700000
F	  11.0027000000	  20.0565000000	   8.7326900000
F	  10.6805000000	  20.1141000000	   6.6137000000
S	   7.0952400000	  18.5923000000	   8.9381000000
O	   6.5298000000	  18.6214000000	  10.2583000000
O	   6.5292900000	  17.5652000000	   8.1346900000
C	   6.5099200000	  20.1942000000	   8.1457500000
F	   5.3204300000	  20.0570000000	   7.5645000000
F	   6.3206100000	  21.0596000000	   9.1211500000
F	   7.3809400000	  20.7154000000	   7.2698000000
S	   6.4728700000	  12.4601000000	  15.8117000000
S	   7.0642200000	  13.7383000000	  14.1477000000
S	   7.3506000000	  12.6529000000	  12.4395000000
S	   8.3628200000	  13.8134000000	   8.0230700000
S	   7.2941700000	  14.0127000000	   6.2118900000
S	   8.4049500000	  15.0645000000	   4.7734900000
S	   7.6987900000	  14.7812000000	   9.8595600000
S	   6.3173500000	  13.7249000000	  10.9893000000
