44

Li	  47.8393000000	  10.5967000000	  47.1038000000
S	  45.1876000000	  12.5547000000	  47.1658000000
F	  43.7162000000	  14.2117000000	  45.8447000000
F	  45.8076000000	  13.8326000000	  45.0158000000
F	  44.2228000000	  12.3204000000	  44.7796000000
O	  44.0803000000	  11.7812000000	  47.7573000000
O	  46.5253000000	  11.9720000000	  47.0445000000
N	  45.3022000000	  13.8898000000	  48.1776000000
C	  44.6867000000	  13.3539000000	  45.5582000000
C	  44.3035000000	  14.1529000000	  49.2468000000
C	  46.2995000000	  14.9478000000	  47.8968000000
H	  46.6470000000	  15.4257000000	  48.8213000000
H	  45.7709000000	  15.7542000000	  47.3723000000
H	  47.1670000000	  14.5349000000	  47.2609000000
H	  43.4191000000	  13.6399000000	  48.8961000000
H	  44.1116000000	  15.2547000000	  49.2622000000
H	  44.5924000000	  13.7973000000	  50.2237000000
S	  45.3665000000	   8.4551300000	  48.0964000000
F	  44.9282000000	   6.1175200000	  49.4288000000
F	  46.4376000000	   7.6374500000	  50.2629000000
F	  44.2249000000	   7.9640700000	  50.3923000000
O	  44.0669000000	   9.1321200000	  47.9875000000
O	  46.6510000000	   9.2130300000	  48.1253000000
N	  45.4318000000	   7.1396100000	  46.9404000000
C	  45.2366000000	   7.4568700000	  49.6519000000
C	  44.1684000000	   6.5992400000	  46.4815000000
C	  46.6265000000	   6.2819000000	  46.8731000000
H	  47.0602000000	   6.1360800000	  45.8474000000
H	  46.5048000000	   5.3388800000	  47.4067000000
H	  47.4342000000	   6.7571800000	  47.4247000000
H	  43.6659000000	   5.8038300000	  47.1267000000
H	  44.2932000000	   6.0163200000	  45.5825000000
H	  43.4412000000	   7.4531300000	  46.2228000000
O	  49.6457000000	  10.2286000000	  48.2405000000
O	  50.6637000000	   8.2971400000	  47.8072000000
C	  50.1696000000	   9.7929000000	  49.5073000000
C	  50.5899000000	   8.3115900000	  49.2249000000
C	  50.5293000000	   9.5900600000	  47.3017000000
H	  51.0374000000	  10.3693000000	  49.6466000000
H	  49.5230000000	   9.8649600000	  50.3974000000
H	  51.5875000000	   8.1828100000	  49.6599000000
H	  49.9792000000	   7.5776800000	  49.6849000000
H	  50.1064000000	   9.7016700000	  46.3013000000
H	  51.5376000000	  10.0446000000	  47.2678000000
