43

Li	  44.1841000000	  18.1232000000	  50.5520000000
S	  41.5661000000	  18.7951000000	  52.3048000000
F	  39.3095000000	  19.4226000000	  51.0767000000
F	  39.6977000000	  17.2890000000	  50.9880000000
F	  38.9956000000	  18.3278000000	  52.8594000000
O	  41.8150000000	  18.5545000000	  53.7363000000
O	  42.4585000000	  18.1393000000	  51.3382000000
N	  41.7687000000	  20.5469000000	  52.0450000000
C	  39.8014000000	  18.3929000000	  51.7661000000
C	  41.8322000000	  21.0976000000	  50.6598000000
C	  41.2326000000	  21.5313000000	  52.9623000000
H	  41.8154000000	  22.5063000000	  52.8184000000
H	  41.3876000000	  21.1426000000	  53.9707000000
H	  40.1112000000	  21.5856000000	  52.8298000000
H	  42.8919000000	  21.3382000000	  50.6337000000
H	  41.1400000000	  21.9401000000	  50.5639000000
H	  41.6511000000	  20.2283000000	  49.9763000000
N	  45.8163000000	  18.5113000000	  54.3946000000
S	  46.0478000000	  19.2439000000	  53.0152000000
O	  47.3746000000	  19.6773000000	  52.7523000000
O	  45.3028000000	  18.6204000000	  51.9281000000
C	  45.0767000000	  20.6969000000	  53.4843000000
F	  43.8867000000	  20.3208000000	  53.9829000000
F	  44.8680000000	  21.4543000000	  52.4526000000
F	  45.5764000000	  21.4173000000	  54.5010000000
S	  45.0446000000	  17.1871000000	  54.6926000000
O	  44.1992000000	  16.7076000000	  53.6309000000
O	  44.5177000000	  17.0971000000	  56.0046000000
C	  46.3956000000	  15.9930000000	  54.6907000000
F	  47.1744000000	  16.1747000000	  55.7196000000
F	  45.8563000000	  14.7766000000	  54.7716000000
F	  47.0648000000	  15.9836000000	  53.6184000000
O	  46.3730000000	  15.3804000000	  48.3974000000
O	  45.0458000000	  16.5698000000	  49.8635000000
C	  46.2646000000	  14.6918000000	  49.6849000000
C	  44.8596000000	  15.1652000000	  50.1446000000
C	  45.9415000000	  16.6682000000	  48.7912000000
H	  46.3270000000	  13.5998000000	  49.7482000000
H	  46.9442000000	  15.0647000000	  50.4792000000
H	  44.0297000000	  14.7567000000	  49.5916000000
H	  44.7447000000	  15.0624000000	  51.2050000000
H	  46.7670000000	  17.4417000000	  48.9055000000
H	  45.2546000000	  16.8574000000	  47.9368000000
