41

Li	  19.7956000000	  42.0154000000	  32.0686000000
S	  22.6838000000	  40.3717000000	  31.8125000000
F	  22.3029000000	  40.4022000000	  29.1549000000
F	  24.3759000000	  39.7124000000	  29.8359000000
F	  22.6652000000	  38.3837000000	  29.9054000000
O	  21.3352000000	  40.9544000000	  31.7744000000
O	  23.0671000000	  39.3254000000	  32.7643000000
N	  23.8592000000	  41.6802000000	  32.0369000000
C	  23.0630000000	  39.6770000000	  30.1055000000
C	  25.0996000000	  41.4611000000	  32.5287000000
C	  23.6845000000	  42.8916000000	  31.2162000000
H	  22.7248000000	  43.0499000000	  30.8174000000
H	  24.3088000000	  42.7924000000	  30.3198000000
H	  23.9375000000	  43.7869000000	  31.8387000000
H	  24.9437000000	  40.7524000000	  33.4208000000
H	  25.4817000000	  42.4516000000	  33.0179000000
H	  25.8142000000	  41.1501000000	  31.7744000000
S	  18.2047000000	  42.3481000000	  34.8140000000
F	  17.4762000000	  44.0798000000	  36.5305000000
F	  17.8470000000	  44.8264000000	  34.4346000000
F	  15.9782000000	  43.7453000000	  34.8383000000
O	  18.6720000000	  42.3119000000	  33.4218000000
O	  19.2866000000	  42.2007000000	  35.8562000000
N	  17.0516000000	  41.1644000000	  34.9464000000
C	  17.3076000000	  43.8927000000	  35.1887000000
C	  16.0021000000	  41.0565000000	  33.9105000000
C	  16.5481000000	  40.8679000000	  36.3270000000
H	  15.9569000000	  39.9372000000	  36.1916000000
H	  15.8833000000	  41.6654000000	  36.6162000000
H	  17.3299000000	  40.7509000000	  37.0037000000
H	  15.8514000000	  39.9668000000	  33.6249000000
H	  16.2580000000	  41.6051000000	  33.0145000000
H	  15.0541000000	  41.4416000000	  34.3004000000
S	  20.0065000000	  43.6252000000	  30.8219000000
S	  18.9517000000	  42.3504000000	  29.4823000000
S	  17.8911000000	  40.9292000000	  30.5714000000
S	  13.6771000000	  38.8898000000	  31.3419000000
S	  11.6262000000	  39.2370000000	  31.1795000000
S	  10.3943000000	  38.2384000000	  32.5701000000
S	  14.7376000000	  39.7377000000	  29.7858000000
S	  15.9389000000	  41.3378000000	  30.3191000000
