33

Li	  24.5129000000	  45.4717000000	  29.8245000000
S	  23.4808000000	  47.2368000000	  27.2943000000
F	  22.7908000000	  45.0370000000	  26.1712000000
F	  22.9434000000	  46.7048000000	  24.7985000000
F	  24.7590000000	  45.7515000000	  25.6096000000
O	  22.1210000000	  47.6344000000	  27.6535000000
O	  24.3392000000	  46.6768000000	  28.3595000000
N	  24.2155000000	  48.6452000000	  26.7780000000
C	  23.5100000000	  46.1398000000	  25.8616000000
C	  25.6292000000	  48.7836000000	  26.5486000000
C	  23.3952000000	  49.5463000000	  25.9123000000
H	  23.8206000000	  50.5747000000	  26.0850000000
H	  22.3453000000	  49.5262000000	  26.2245000000
H	  23.5033000000	  49.1094000000	  24.8792000000
H	  25.9050000000	  49.5907000000	  25.8569000000
H	  25.8645000000	  47.8550000000	  26.0823000000
H	  26.2509000000	  48.9128000000	  27.4485000000
S	  25.1224000000	  46.3346000000	  31.5413000000
S	  26.1383000000	  44.4746000000	  31.3236000000
S	  26.3830000000	  43.9716000000	  29.3500000000
S	  30.1700000000	  45.7142000000	  26.1113000000
S	  31.6068000000	  47.2526000000	  26.4962000000
S	  31.1781000000	  49.0224000000	  25.4093000000
S	  28.4273000000	  45.8604000000	  27.3522000000
S	  28.3610000000	  44.1799000000	  28.5953000000
S	  22.8745000000	  44.3354000000	  29.6445000000
S	  22.2771000000	  42.7583000000	  28.3510000000
S	  23.8114000000	  42.1446000000	  27.1212000000
S	  24.6744000000	  38.0672000000	  25.0888000000
S	  24.1790000000	  36.3377000000	  24.0789000000
S	  23.5671000000	  36.4415000000	  22.1245000000
S	  23.1530000000	  38.7208000000	  26.2262000000
S	  22.9284000000	  40.7429000000	  25.8341000000
