59

Li	  14.1470000000	  41.3357000000	  20.9160000000
S	  14.1775000000	  44.4784000000	  21.7387000000
F	  15.5692000000	  45.6056000000	  23.7224000000
F	  15.0416000000	  43.5778000000	  24.0749000000
F	  16.6239000000	  43.9260000000	  22.7429000000
O	  14.4898000000	  45.6670000000	  20.8407000000
O	  14.1455000000	  43.1359000000	  21.1397000000
N	  12.6904000000	  44.5986000000	  22.4792000000
C	  15.4775000000	  44.4132000000	  23.1569000000
C	  12.3852000000	  45.9245000000	  23.1287000000
C	  12.0638000000	  43.4568000000	  23.1475000000
H	  11.2263000000	  43.6804000000	  23.7831000000
H	  12.8432000000	  43.0366000000	  23.8288000000
H	  11.8166000000	  42.6718000000	  22.4500000000
H	  11.2844000000	  46.1409000000	  23.0126000000
H	  12.9636000000	  46.8321000000	  22.8108000000
H	  12.6323000000	  45.8075000000	  24.1877000000
S	  12.4353000000	  38.3179000000	  20.8463000000
F	  11.3264000000	  37.5524000000	  22.9954000000
F	  11.0313000000	  39.6952000000	  22.7643000000
F	   9.9602500000	  38.2567000000	  21.4272000000
O	  13.2527000000	  39.5299000000	  20.8496000000
O	  13.1318000000	  37.0371000000	  21.0302000000
N	  11.6425000000	  38.2643000000	  19.2933000000
C	  11.0878000000	  38.4982000000	  22.1355000000
C	  11.1103000000	  37.0096000000	  18.7841000000
C	  11.1377000000	  39.4950000000	  18.6682000000
H	  10.0734000000	  39.6139000000	  18.9801000000
H	  11.0395000000	  39.4075000000	  17.6431000000
H	  11.8448000000	  40.3735000000	  18.7372000000
H	  11.5342000000	  36.1669000000	  19.3192000000
H	  11.5684000000	  36.9172000000	  17.7925000000
H	  10.0330000000	  36.9160000000	  18.7660000000
N	  16.1130000000	  39.9841000000	  23.9581000000
S	  14.5028000000	  39.8658000000	  23.9636000000
O	  13.8695000000	  40.9545000000	  23.2654000000
O	  14.0574000000	  38.5446000000	  23.6354000000
C	  14.0697000000	  40.0814000000	  25.7333000000
F	  14.4265000000	  38.9958000000	  26.4838000000
F	  12.7786000000	  40.3466000000	  25.8476000000
F	  14.6516000000	  41.1827000000	  26.2186000000
S	  16.8937000000	  40.3790000000	  22.5921000000
O	  17.9919000000	  41.3384000000	  22.8409000000
O	  15.9076000000	  40.6091000000	  21.5769000000
C	  17.7136000000	  38.8767000000	  22.0997000000
F	  18.0566000000	  38.8562000000	  20.8459000000
F	  18.7175000000	  38.5951000000	  22.9049000000
F	  16.8337000000	  37.9322000000	  22.2193000000
O	  15.9691000000	  40.4799000000	  17.2976000000
O	  14.5473000000	  41.0782000000	  18.9473000000
C	  14.9096000000	  41.1292000000	  16.6497000000
C	  14.4287000000	  41.9821000000	  17.8657000000
C	  15.4970000000	  40.1346000000	  18.5563000000
H	  15.3168000000	  41.6881000000	  15.7993000000
H	  14.1762000000	  40.3129000000	  16.3602000000
H	  15.0590000000	  42.8508000000	  17.8584000000
H	  13.3710000000	  42.2596000000	  17.9174000000
H	  15.0559000000	  39.1648000000	  18.4323000000
H	  16.4070000000	  39.9854000000	  19.1762000000
