63

Li	   6.9935000000	  21.2656000000	  52.8738000000
S	   3.8949700000	  20.3821000000	  52.5418000000
F	   5.0831900000	  19.5401000000	  54.6353000000
F	   3.0981700000	  20.2191000000	  54.9320000000
F	   3.4305400000	  18.3126000000	  53.8863000000
O	   5.2255500000	  21.0153000000	  52.4234000000
O	   3.4030500000	  19.4932000000	  51.4597000000
N	   2.8231500000	  21.6947000000	  52.6927000000
C	   3.8741100000	  19.5162000000	  54.1228000000
C	   3.2059500000	  22.7933000000	  53.6072000000
C	   1.4080400000	  21.2836000000	  52.6830000000
H	   1.1291900000	  21.1871000000	  53.7279000000
H	   1.1942600000	  20.3535000000	  52.0916000000
H	   0.7303572183	  22.0203000000	  52.2767000000
H	   3.3571600000	  23.7858000000	  53.0673000000
H	   4.2083200000	  22.6484000000	  54.0475000000
H	   2.4100200000	  22.8552000000	  54.3355000000
S	   7.7702500000	  24.1064000000	  51.1522000000
F	   5.9169800000	  25.8754000000	  50.7332000000
F	   5.7654400000	  24.7571000000	  52.6098000000
F	   7.1948500000	  26.3307000000	  52.4592000000
O	   9.1479200000	  24.6429000000	  50.9431000000
O	   7.6254600000	  22.8720000000	  51.9982000000
N	   7.2567500000	  23.7512000000	  49.5824000000
C	   6.5848700000	  25.3539000000	  51.7935000000
C	   7.7240100000	  24.6317000000	  48.4820000000
C	   6.1169500000	  22.8404000000	  49.2497000000
H	   5.5556700000	  22.4862000000	  50.2033000000
H	   6.4574300000	  22.0207000000	  48.5933000000
H	   5.4063800000	  23.4533000000	  48.5845000000
H	   7.2010900000	  24.2828000000	  47.6004000000
H	   8.8302500000	  24.4950000000	  48.2062000000
H	   7.4677900000	  25.6320000000	  48.7318000000
N	   7.8488700000	  23.0161000000	  56.3761000000
S	   6.4047700000	  22.8568000000	  55.8252000000
O	   5.6321100000	  24.0910000000	  55.6996000000
O	   6.4521600000	  22.0897000000	  54.6249000000
C	   5.5340300000	  21.9478000000	  57.0605000000
F	   4.3640000000	  21.5894000000	  56.5405000000
F	   5.3626800000	  22.6613000000	  58.0994000000
F	   6.0648800000	  20.7976000000	  57.4834000000
S	   9.0006700000	  23.8902000000	  55.7343000000
O	   9.7179000000	  24.6389000000	  56.7339000000
O	   8.6781900000	  24.5187000000	  54.4599000000
C	  10.1785000000	  22.5918000000	  55.1926000000
F	  10.3831000000	  21.7022000000	  56.2289000000
F	   9.7437400000	  21.8347000000	  54.1709000000
F	  11.3387000000	  23.1539000000	  54.7480000000
N	   7.7351300000	  18.1157000000	  51.1917000000
S	   7.6007300000	  18.1386000000	  52.7427000000
O	   7.4020900000	  19.4089000000	  53.3561000000
O	   6.8455900000	  17.0059000000	  53.2559000000
C	   9.2757200000	  17.6963000000	  53.2719000000
F	   9.2698900000	  17.6148000000	  54.5727000000
F	  10.2040000000	  18.5741000000	  52.9200000000
F	   9.6710300000	  16.5006000000	  52.8399000000
S	   7.4999500000	  19.3169000000	  50.2258000000
O	   7.8315500000	  20.5640000000	  50.7489000000
O	   6.1931800000	  19.0954000000	  49.6249000000
C	   8.8349800000	  18.9579000000	  48.9474000000
F	  10.0877000000	  18.9343000000	  49.4075000000
F	   8.6294700000	  17.8321000000	  48.3342000000
F	   8.7972700000	  19.9586000000	  48.0879000000
