67

Li	  48.0430000000	  13.0731000000	  29.6958000000
S	  50.8410000000	  15.0136000000	  31.0467000000
F	  50.7797000000	  17.6432000000	  31.3306000000
F	  48.9492000000	  16.7309000000	  30.6425000000
F	  49.3864000000	  16.5038000000	  32.7085000000
O	  49.9750000000	  14.0307000000	  30.3826000000
O	  52.1323000000	  15.4283000000	  30.4111000000
N	  51.2747000000	  14.2680000000	  32.6146000000
C	  49.9591000000	  16.5964000000	  31.4790000000
C	  52.1381000000	  15.1319000000	  33.3895000000
C	  50.2551000000	  13.5187000000	  33.4509000000
H	  50.8192000000	  12.9852000000	  34.2483000000
H	  49.6609000000	  12.7772000000	  32.9381000000
H	  49.6068000000	  14.3613000000	  33.8832000000
H	  51.5364000000	  15.9922000000	  33.7120000000
H	  52.9517000000	  15.5284000000	  32.7171000000
H	  52.4932000000	  14.5895000000	  34.2262000000
S	  45.2681000000	  12.1020000000	  27.7800000000
F	  43.0482000000	  11.4892000000	  29.1074000000
F	  43.9045000000	   9.9002400000	  27.7859000000
F	  44.8067000000	  10.4596000000	  29.7399000000
O	  46.4027000000	  12.4321000000	  28.5545000000
O	  45.4265000000	  11.6235000000	  26.3829000000
N	  44.3677000000	  13.5808000000	  27.6419000000
C	  44.1865000000	  10.9349000000	  28.6735000000
C	  43.2649000000	  13.7217000000	  26.6816000000
C	  44.2146000000	  14.4298000000	  28.8099000000
H	  43.5849000000	  13.9887000000	  29.6253000000
H	  43.7955000000	  15.4557000000	  28.6307000000
H	  45.1732000000	  14.6051000000	  29.1955000000
H	  42.2718000000	  13.6925000000	  27.1470000000
H	  43.2513000000	  12.8082000000	  26.0835000000
H	  43.4027000000	  14.5814000000	  26.0857000000
N	  49.6601000000	  16.2646000000	  27.8248000000
S	  50.8717000000	  16.7244000000	  26.9805000000
O	  52.0969000000	  16.8186000000	  27.7412000000
O	  50.9176000000	  16.1135000000	  25.6880000000
C	  50.3346000000	  18.5020000000	  26.6375000000
F	  49.2448000000	  18.7559000000	  25.9800000000
F	  51.3251000000	  19.1214000000	  25.9965000000
F	  50.1791000000	  19.2243000000	  27.7209000000
S	  48.6185000000	  15.1513000000	  27.4997000000
O	  47.7195000000	  14.8510000000	  28.6381000000
O	  49.0275000000	  13.9951000000	  26.6769000000
C	  47.4471000000	  15.9878000000	  26.3531000000
F	  46.4822000000	  15.1571000000	  25.8887000000
F	  46.8558000000	  16.9780000000	  27.0242000000
F	  48.0687000000	  16.5311000000	  25.2969000000
O	  48.7694000000	   9.4082200000	  28.7659000000
O	  48.9185000000	  11.4604000000	  29.7551000000
C	  48.3260000000	   9.2517000000	  30.1133000000
C	  48.9056000000	  10.5345000000	  30.8102000000
C	  49.4044000000	  10.6893000000	  28.7384000000
H	  47.2254000000	   9.0045700000	  30.1639000000
H	  48.6915000000	   8.2905400000	  30.5940000000
H	  48.3318000000	  10.9723000000	  31.5992000000
H	  49.8958000000	  10.3285000000	  31.2078000000
H	  50.4695000000	  10.4656000000	  28.7496000000
H	  49.1075000000	  11.0890000000	  27.7897000000
S	  40.0296000000	   5.3583800000	  34.8188000000
S	  40.3843000000	   7.5041500000	  34.6892000000
S	  42.0628000000	   8.0885900000	  33.5947000000
S	  45.6269000000	  11.0574000000	  32.6910000000
S	  45.3314000000	  12.9446000000	  31.8410000000
S	  47.2312000000	  13.8996000000	  31.6237000000
S	  44.2995000000	  10.6419000000	  34.3331000000
S	  43.8596000000	   8.6478200000	  34.6212000000
