58

Li	  57.5125000000	  20.2820000000	   4.7184400000
S	  57.8405000000	  21.3921000000	   7.7384900000
F	  60.1510527817	  22.2765000000	   8.7210600000
F	  59.1430427817	  20.6998000000	   9.8180200000
F	  60.1126427817	  20.1360000000	   7.9684300000
O	  57.9195000000	  20.8496000000	   6.3425000000
O	  56.7458000000	  20.8947000000	   8.5896300000
N	  57.6116000000	  23.1100000000	   7.6480700000
C	  59.4562827817	  21.1361000000	   8.5680300000
C	  58.3003000000	  23.8996000000	   6.6286000000
C	  56.7033000000	  23.7475000000	   8.5049600000
H	  57.0796000000	  23.6191000000	   9.5048000000
H	  55.7777000000	  23.2500000000	   8.4748700000
H	  56.6273000000	  24.7736000000	   8.3084400000
H	  57.6475000000	  23.9909000000	   5.8102900000
H	  59.1530327817	  23.3805000000	   6.2051200000
H	  58.6321000000	  24.8346000000	   6.9787300000
N	  59.2117327817	  16.6491000000	   7.1625000000
S	  57.9505000000	  17.4346000000	   6.6094700000
O	  57.4670000000	  18.2945000000	   7.6377300000
O	  58.0853000000	  18.0478000000	   5.2873700000
C	  56.6119000000	  16.2158000000	   6.3611600000
F	  56.6478000000	  15.1866000000	   7.1307600000
F	  56.6779000000	  15.6448000000	   5.1970300000
F	  55.3808000000	  16.7075000000	   6.5125400000
S	  60.6545627817	  16.7198000000	   6.7000800000
O	  61.5105627817	  17.1947000000	   7.7175300000
O	  60.8423627817	  17.2432000000	   5.3879400000
C	  61.0550527817	  14.9378000000	   6.6062800000
F	  60.8767327817	  14.2972000000	   7.7291800000
F	  60.2687527817	  14.3784000000	   5.6934500000
F	  62.3669227817	  14.7492000000	   6.3201400000
N	  54.5552000000	  20.2421000000	   3.1021800000
S	  54.9413000000	  18.9614000000	   3.9283000000
O	  55.4666000000	  17.8718000000	   3.1316100000
O	  55.5089000000	  19.3077000000	   5.1943300000
C	  53.3183000000	  18.2686000000	   4.3207800000
F	  52.6823000000	  19.0956000000	   5.1386200000
F	  53.4959000000	  17.1714000000	   4.9678700000
F	  52.6218000000	  18.0330000000	   3.2243200000
S	  55.1518000000	  21.6906000000	   3.0297200000
O	  54.8607000000	  22.4546000000	   1.8107000000
O	  56.4177000000	  21.7639000000	   3.6578000000
C	  54.0583000000	  22.6240000000	   4.2038100000
F	  54.3617000000	  23.8992000000	   4.2698100000
F	  52.8308000000	  22.4718000000	   3.7793800000
F	  54.1658000000	  22.0195000000	   5.3437700000
O	  58.6444000000	  20.1773000000	   3.0461800000
O	  60.1116127817	  19.4549000000	   1.5722600000
C	  59.4094027817	  21.3017000000	   2.6769800000
C	  60.5955427817	  20.7515000000	   1.8755500000
C	  59.3675527817	  19.0714000000	   2.6396900000
H	  58.6303000000	  21.9131000000	   2.1950000000
H	  59.8155027817	  21.9567000000	   3.4430100000
H	  61.0435827817	  21.4582000000	   1.1160572183
H	  61.4407727817	  20.6285000000	   2.5824700000
H	  60.0517327817	  18.7997000000	   3.3539900000
H	  58.6229000000	  18.3293000000	   2.4000500000
