56

Li	  40.0892000000	  23.4772000000	  29.0939000000
S	  42.5770000000	  22.9236000000	  31.1840000000
F	  40.9099000000	  24.4615000000	  32.4455000000
F	  42.6467000000	  23.8532000000	  33.6725000000
F	  42.9305000000	  25.4424000000	  32.1985000000
O	  43.0594000000	  21.7418000000	  31.9194000000
O	  41.3543000000	  22.7582000000	  30.3209000000
N	  43.8415000000	  23.5910000000	  30.1824000000
C	  42.2693000000	  24.2676000000	  32.4874000000
C	  43.4249000000	  24.6862000000	  29.3534000000
C	  45.0829000000	  23.8428000000	  30.8475000000
H	  45.0363000000	  24.5758000000	  31.7567000000
H	  45.7020000000	  24.2801000000	  30.0621000000
H	  45.4620000000	  22.9009000000	  31.1834000000
H	  42.7477000000	  25.3011000000	  29.9010000000
H	  42.8496000000	  24.2636000000	  28.5143000000
H	  44.1803000000	  25.4339000000	  29.0390000000
S	  41.2888000000	  22.1914000000	  26.3443000000
F	  39.9500000000	  22.8068000000	  24.2563000000
F	  40.2328000000	  20.6328000000	  24.5952000000
F	  38.8381000000	  21.8016000000	  25.8213000000
O	  40.7923000000	  23.1427000000	  27.3551000000
O	  41.9120000000	  20.9396000000	  26.8132000000
N	  42.5354000000	  23.0767000000	  25.4982000000
C	  39.9913000000	  21.8109000000	  25.1309000000
C	  42.3778000000	  24.5188000000	  25.3770000000
C	  43.2756000000	  22.3698000000	  24.4914000000
H	  44.2550000000	  22.7792000000	  24.4067000000
H	  42.7406000000	  22.5668000000	  23.5498000000
H	  43.2668000000	  21.2708000000	  24.6269000000
H	  42.3714000000	  24.9070000000	  26.3661000000
H	  41.3792000000	  24.7243000000	  24.8344000000
H	  43.1973000000	  24.9690000000	  24.7419000000
N	  39.0504000000	  20.2039000000	  30.6351000000
S	  39.1494000000	  21.2115000000	  31.8610000000
O	  40.3831000000	  21.0791000000	  32.5985000000
O	  38.6629000000	  22.5396000000	  31.7108000000
C	  37.9407000000	  20.4838000000	  33.0325000000
F	  37.0278000000	  19.7512000000	  32.4657000000
F	  37.3141000000	  21.4391000000	  33.7158000000
F	  38.4950000000	  19.6970000000	  33.9002000000
S	  38.7873000000	  20.4301000000	  29.1117000000
O	  39.4572000000	  19.5292000000	  28.1648000000
O	  38.8374000000	  21.8257000000	  28.7501000000
C	  36.9696000000	  20.0033000000	  29.0825000000
F	  36.1512000000	  20.9115000000	  29.6280000000
F	  36.4168000000	  19.8009000000	  27.9535000000
F	  36.8062000000	  18.9134000000	  29.7478000000
S	  34.5894000000	  27.9652000000	  30.7282000000
S	  33.7356000000	  26.8996000000	  29.1370000000
S	  34.3717000000	  27.7217000000	  27.2810000000
S	  37.9444000000	  24.7375000000	  27.1940000000
S	  38.3029000000	  25.1132000000	  29.2428000000
S	  40.2915000000	  25.7364000000	  29.5119000000
S	  37.1187000000	  26.4159000000	  26.1445000000
S	  35.0163000000	  26.2085000000	  26.0237000000
