64

Li	  54.5205000000	  14.3293000000	  31.7746000000
S	  56.7087000000	  12.2172000000	  33.3107000000
F	  58.0361000000	  12.8232000000	  35.6091000000
F	  59.2663527817	  12.2930000000	  33.8715000000
F	  58.2896000000	  14.1827000000	  33.8290000000
O	  55.8519000000	  13.2710000000	  32.7058000000
O	  57.2067000000	  11.1416000000	  32.4565000000
N	  55.7099000000	  11.4108000000	  34.4389000000
C	  58.1670000000	  12.9074000000	  34.2371000000
C	  55.1848000000	  12.3377000000	  35.5143000000
C	  56.0992000000	  10.0923000000	  34.9907000000
H	  57.0683000000	  10.1641000000	  35.4425000000
H	  55.9439000000	   9.3594500000	  34.2760000000
H	  55.2871000000	   9.7352800000	  35.6862000000
H	  55.8217000000	  12.4270000000	  36.4170000000
H	  54.1789000000	  11.9639000000	  35.8896000000
H	  55.0026000000	  13.3658000000	  35.1908000000
S	  51.2902000000	  13.8611000000	  32.2379000000
F	  50.5761000000	  15.4758000000	  34.2923000000
F	  51.4420000000	  16.3865000000	  32.5447000000
F	  49.4196000000	  15.6767000000	  32.4652000000
O	  50.5803000000	  13.5228000000	  30.9766000000
O	  52.7335000000	  13.8827000000	  32.1313000000
N	  50.8952000000	  12.6713000000	  33.4042000000
C	  50.6662000000	  15.4412000000	  32.9253000000
C	  51.7253000000	  12.5694000000	  34.5879000000
C	  49.5004000000	  12.2286000000	  33.5431000000
H	  49.1094000000	  12.0616000000	  32.4999000000
H	  48.8451000000	  13.0653000000	  33.8592000000
H	  49.4888000000	  11.3290000000	  34.1380000000
H	  51.6031000000	  11.5585000000	  35.0548000000
H	  51.4502000000	  13.2849000000	  35.3948000000
H	  52.7674000000	  12.7349000000	  34.2748000000
S	  53.6487000000	  14.4294000000	  28.6801000000
F	  54.6354000000	  13.4844000000	  26.4781000000
F	  55.6336000000	  12.6676000000	  28.3184000000
F	  53.5475000000	  12.0315000000	  27.7955000000
O	  52.2170000000	  14.2868000000	  28.4925000000
O	  54.2988000000	  14.4805000000	  29.9769000000
N	  54.2455000000	  15.7406000000	  27.8726000000
C	  54.4422000000	  13.0253000000	  27.7601000000
C	  53.4424000000	  16.4363000000	  26.8433000000
C	  55.5170000000	  16.4110000000	  28.2951000000
H	  56.3280000000	  15.8210000000	  27.8576000000
H	  55.7602000000	  16.3871000000	  29.3715000000
H	  55.6010000000	  17.4302000000	  27.9287000000
H	  52.5926000000	  16.8491000000	  27.3290000000
H	  53.1652000000	  15.8215000000	  26.0017000000
H	  54.0516000000	  17.3168000000	  26.5869000000
N	  53.6077000000	  18.3536000000	  33.0293000000
S	  54.4044000000	  17.0666000000	  33.5233000000
O	  53.7432000000	  16.3800000000	  34.6085000000
O	  55.0704000000	  16.3194000000	  32.4922000000
C	  55.8396000000	  17.8657000000	  34.3641000000
F	  56.4621000000	  18.8517000000	  33.7027000000
F	  56.8295000000	  17.0519000000	  34.7705000000
F	  55.2897000000	  18.4343000000	  35.4238000000
S	  53.1912000000	  18.6486000000	  31.5330000000
O	  51.8809000000	  19.2250000000	  31.4168000000
O	  53.5421000000	  17.6524000000	  30.5427000000
C	  54.2789000000	  20.0260000000	  31.1585000000
F	  54.2250000000	  21.0073000000	  32.0611000000
F	  55.5331000000	  19.5582000000	  30.9607000000
F	  53.8848000000	  20.5001000000	  29.9395000000
