39

Li	  22.8786000000	   2.4665800000	  27.9918000000
S	  22.6225000000	   0.1080572183	  30.3319000000
F	  24.4323000000	  -0.9126427817	  31.8949000000
F	  24.1111000000	  -2.0529427817	  30.1933000000
F	  25.1896000000	  -0.1978427817	  29.9251000000
O	  22.3207000000	   0.7945572183	  31.5956000000
O	  22.8059000000	   0.8930572183	  29.0978000000
N	  21.4149000000	  -1.1106427817	  30.0314000000
C	  24.1732000000	  -0.8401427817	  30.5963000000
C	  21.3907000000	  -1.6586427817	  28.5939000000
C	  20.9818000000	  -1.9479427817	  31.0879000000
H	  21.8064000000	  -2.4736427817	  31.6617000000
H	  20.1946000000	  -2.5966427817	  30.6678000000
H	  20.4623000000	  -1.3892427817	  31.8663000000
H	  21.4479000000	  -0.8207427817	  27.8487000000
H	  20.4323000000	  -2.2192427817	  28.4738000000
H	  22.3091000000	  -2.2193427817	  28.5022000000
O	  21.6450000000	   3.5584800000	  29.2128000000
O	  20.2006000000	   3.4303200000	  30.8422000000
C	  20.5057000000	   4.1639600000	  28.6837000000
C	  19.4333000000	   3.7529100000	  29.7190000000
C	  21.5305000000	   3.7423800000	  30.5623000000
H	  20.6365000000	   5.2579300000	  28.6190000000
H	  20.3674000000	   3.7680200000	  27.6424000000
H	  18.7733000000	   4.5574400000	  29.8686000000
H	  18.8023000000	   2.9111900000	  29.3828000000
H	  22.2105000000	   3.0860800000	  31.1092000000
H	  21.7473000000	   4.7735400000	  30.8372000000
O	  22.1296000000	   1.6119400000	  24.2000000000
O	  22.3090000000	   1.7906000000	  26.3902000000
C	  23.4359000000	   1.3263600000	  24.5268000000
C	  23.2732000000	   0.9235572183	  25.9303000000
C	  21.5109000000	   2.0698700000	  25.3302000000
H	  23.8426000000	   0.6080572183	  23.8051000000
H	  23.8715000000	   2.3310300000	  24.4396000000
H	  22.9286000000	  -0.1165427817	  25.9700000000
H	  24.2564000000	   1.0615572183	  26.4448000000
H	  21.3607000000	   3.1721400000	  25.3216000000
H	  20.6362000000	   1.4662500000	  25.4486000000
