68

Li	  15.1183000000	  40.6566000000	  24.9142000000
S	  13.3221000000	  41.3808000000	  27.5396000000
F	  11.2802000000	  43.0160000000	  27.4651000000
F	  11.2519000000	  41.4339000000	  25.9815000000
F	  10.6956000000	  40.9717000000	  27.9794000000
O	  13.8366000000	  40.8097000000	  26.2852000000
O	  13.9972000000	  42.5987000000	  28.1167000000
N	  13.3834000000	  40.1748000000	  28.7933000000
C	  11.4979000000	  41.7356000000	  27.2380000000
C	  12.8655000000	  40.5274000000	  30.1509000000
C	  13.7993000000	  38.7204000000	  28.5030000000
H	  12.9971000000	  37.9974000000	  28.9173000000
H	  14.6698000000	  38.5680000000	  29.1120000000
H	  13.9997000000	  38.5569000000	  27.4591000000
H	  13.7130000000	  40.4679000000	  30.8217000000
H	  12.0470000000	  39.8674000000	  30.4645000000
H	  12.5560000000	  41.5489000000	  30.1720000000
S	  17.0859000000	  43.0785000000	  26.2584000000
F	  19.6486000000	  43.4084000000	  26.3107000000
F	  18.9197000000	  42.1229000000	  27.9599000000
F	  19.0482000000	  41.3979000000	  25.8406000000
O	  16.4080000000	  42.0191000000	  25.4522000000
O	  16.4224000000	  43.6214000000	  27.4531000000
N	  17.4030000000	  44.2580000000	  25.0528000000
C	  18.7648000000	  42.4568000000	  26.6103000000
C	  18.0349000000	  45.5628000000	  25.3957000000
C	  17.4859000000	  43.9125000000	  23.6609000000
H	  18.4735000000	  43.5390000000	  23.3901000000
H	  17.2213000000	  44.8468000000	  23.0983000000
H	  16.7906000000	  43.2104000000	  23.2488000000
H	  17.8498000000	  46.4438000000	  24.6947000000
H	  19.0957000000	  45.4945000000	  25.4569000000
H	  17.7064000000	  45.7753000000	  26.4080000000
S	  17.0020000000	  39.2504000000	  22.4259000000
F	  16.8325000000	  38.4868000000	  19.9285000000
F	  16.4108000000	  36.9637000000	  21.3949000000
F	  14.9144000000	  38.6270000000	  21.0575000000
O	  15.9057000000	  40.0957000000	  22.9726000000
O	  17.8080000000	  38.3618000000	  23.2738000000
N	  18.1166000000	  40.3368000000	  21.5470000000
C	  16.2116000000	  38.2275000000	  21.0885000000
C	  19.3208000000	  39.7264000000	  20.9880000000
C	  17.5652000000	  41.5172000000	  20.9076000000
H	  16.6182000000	  41.8925000000	  21.3710000000
H	  17.2127000000	  41.3422000000	  19.9153000000
H	  18.2809000000	  42.3379000000	  20.9494000000
H	  19.2830000000	  39.2745000000	  19.9885000000
H	  19.6993000000	  38.9602000000	  21.6573000000
H	  20.0774000000	  40.4787000000	  20.9896000000
O	  14.0462000000	  41.8617000000	  23.6502000000
O	  11.9914000000	  42.1655000000	  22.9372000000
C	  14.0229000000	  43.3016000000	  23.4576000000
C	  12.5289000000	  43.4647000000	  23.3227000000
C	  12.9853000000	  41.2482000000	  22.9276000000
H	  14.5544000000	  43.8502000000	  24.2311000000
H	  14.5634000000	  43.5735000000	  22.5235000000
H	  12.1857000000	  43.8016000000	  24.2781000000
H	  12.2485000000	  44.1927000000	  22.5825000000
H	  13.2983000000	  40.9862000000	  21.9001000000
H	  12.5426000000	  40.4328000000	  23.5260000000
S	  16.2452000000	  38.9240000000	  26.0558000000
S	  15.6589000000	  36.8658000000	  25.4063000000
S	  17.3703000000	  35.5078000000	  25.5269000000
S	  19.7500000000	  32.2399000000	  23.4230000000
S	  20.5260000000	  31.2392000000	  21.7428000000
S	  20.7520000000	  29.1130000000	  21.9186000000
S	  18.2312000000	  33.4364000000	  22.8469000000
S	  18.4398000000	  35.3774000000	  23.6998000000
