54

Li	  29.1437000000	  49.4920000000	  46.0677000000
S	  30.1945000000	  46.3070000000	  47.1332000000
F	  31.9403000000	  44.8798000000	  48.6329000000
F	  32.6990000000	  46.0292000000	  46.9225000000
F	  32.0281000000	  47.1567000000	  48.7323000000
O	  29.7964000000	  47.6893000000	  46.8640000000
O	  30.1689000000	  45.2892000000	  46.0576000000
N	  29.0109000000	  45.7764000000	  48.2914000000
C	  31.8109000000	  46.0709000000	  47.9648000000
C	  29.1994000000	  46.2509000000	  49.6305000000
C	  27.6748000000	  45.3593000000	  47.8170000000
H	  27.0060000000	  45.1612000000	  48.6378000000
H	  27.8241000000	  44.4513000000	  47.2267000000
H	  27.2529000000	  46.0942000000	  47.1666000000
H	  30.0622000000	  45.7620000000	  50.0262000000
H	  28.3061000000	  46.1648000000	  50.2045000000
H	  29.3520000000	  47.3682000000	  49.4989000000
N	  32.2595000000	  51.1515000000	  44.7333000000
S	  31.1527000000	  50.8680000000	  43.6839000000
O	  30.2014000000	  49.9536000000	  44.2384000000
O	  30.8215000000	  52.0423000000	  42.8832000000
C	  32.2205000000	  49.8160000000	  42.5402000000
F	  31.6468000000	  49.5701000000	  41.3934000000
F	  32.5741000000	  48.6703000000	  43.1399000000
F	  33.3280000000	  50.4414000000	  42.3499000000
S	  32.1883000000	  51.1622000000	  46.3063000000
O	  31.0431000000	  50.5637000000	  46.8915000000
O	  32.6477000000	  52.3985000000	  46.8638000000
C	  33.4853000000	  49.9082000000	  46.6263000000
F	  34.6842000000	  50.1961000000	  46.0915000000
F	  33.7437000000	  49.9161000000	  47.9191000000
F	  33.1179000000	  48.7228000000	  46.2722000000
O	  26.4125000000	  51.5314000000	  48.5228000000
O	  27.7481000000	  50.3091000000	  47.2446000000
C	  26.2506000000	  50.2123000000	  48.9649000000
C	  27.4574000000	  49.4869000000	  48.3738000000
C	  26.9429000000	  51.4196000000	  47.2706000000
H	  26.2205000000	  50.1936000000	  50.0249000000
H	  25.3684000000	  49.7135000000	  48.6658000000
H	  28.3343000000	  49.3858000000	  49.0610000000
H	  27.0624000000	  48.5044000000	  48.1625000000
H	  26.1139000000	  51.2275000000	  46.5948000000
H	  27.4396000000	  52.3840000000	  46.9740000000
O	  27.9290000000	  48.5549000000	  44.9952000000
O	  27.2414000000	  47.2848000000	  43.3542000000
C	  27.2146000000	  49.3877000000	  44.0706000000
C	  27.0364000000	  48.5238000000	  42.8120000000
C	  28.2640000000	  47.4812000000	  44.2225000000
H	  26.2249000000	  49.7688000000	  44.5226000000
H	  27.7241000000	  50.2660000000	  43.8022000000
H	  26.0937000000	  48.6177000000	  42.2654000000
H	  27.8628000000	  48.7459000000	  42.1112000000
H	  29.1725000000	  47.6891000000	  43.7219000000
H	  28.5105000000	  46.7214000000	  44.9336000000
