49

Li	   5.2236500000	  12.6781000000	  55.9230000000
S	   7.0200500000	  11.1283000000	  58.4110000000
F	   4.9471500000	   9.5021700000	  58.5675000000
F	   6.6186100000	   8.5421700000	  57.6935000000
F	   6.5493500000	   8.9114000000	  59.8200227817
O	   6.4530700000	  11.8290000000	  57.2491000000
O	   7.0347400000	  11.8112000000	  59.7111927817
N	   8.6979600000	  10.7976000000	  58.0689000000
C	   6.2328000000	   9.4258300000	  58.5975000000
C	   9.0389600000	  10.4316000000	  56.6995000000
C	   9.5650100000	  10.1819000000	  59.0521527817
H	  10.5607000000	  10.5470000000	  58.8013000000
H	   9.7472900000	   9.1676600000	  58.9040427817
H	   9.3291000000	  10.3805000000	  60.0706327817
H	  10.1269000000	  10.5516000000	  56.4879000000
H	   8.5397000000	  10.9687000000	  55.8737000000
H	   8.6943100000	   9.4598000000	  56.6275000000
S	   5.8750400000	  10.4251000000	  53.8085000000
F	   4.0226300000	   8.6070800000	  53.5774000000
F	   3.8108600000	  10.4470000000	  52.2728000000
F	   5.2517000000	   8.8550500000	  51.7572000000
O	   5.2594000000	  11.6215000000	  54.4217000000
O	   6.5586300000	   9.4490500000	  54.6485000000
N	   7.0090200000	  10.9199000000	  52.5899000000
C	   4.6273500000	   9.5409300000	  52.7737000000
C	   8.4229000000	  10.4399000000	  52.5662000000
C	   6.7373800000	  12.3129000000	  52.0906000000
H	   7.0005200000	  13.0773000000	  52.7900000000
H	   5.7348200000	  12.2757000000	  51.7033000000
H	   7.4160100000	  12.4361000000	  51.1896000000
H	   8.4933800000	   9.3207900000	  52.5624000000
H	   8.9269200000	  10.8825000000	  53.3983000000
H	   8.9177600000	  10.7313000000	  51.6288000000
S	   4.8116700000	  14.7441000000	  58.1936000000
F	   6.0086000000	  16.8272000000	  59.3626227817
F	   5.7484400000	  17.0839000000	  57.2055000000
F	   4.0381900000	  17.2441000000	  58.4788000000
O	   5.0250600000	  14.2310000000	  56.8071000000
O	   5.4585800000	  14.0157000000	  59.2931527817
N	   3.1031700000	  14.6096000000	  58.4532000000
C	   5.1811100000	  16.5897000000	  58.3298000000
C	   2.4948700000	  14.7777000000	  59.7544727817
C	   2.1585200000	  14.9915000000	  57.3306000000
H	   1.3101400000	  14.2648000000	  57.3112000000
H	   2.6911100000	  14.9028000000	  56.3444000000
H	   1.7558600000	  15.9754000000	  57.4462000000
H	   1.4361200000	  14.5272000000	  59.7263927817
H	   2.8213200000	  15.7727000000	  60.0758627817
H	   2.9111200000	  14.2294000000	  60.5162827817
