55

Li	  40.8150000000	  22.7073000000	  44.9775000000
S	  42.7246000000	  22.6680000000	  47.6747000000
F	  44.9379000000	  24.1556000000	  47.6145000000
F	  45.2987000000	  21.9778000000	  47.4184000000
F	  44.5612000000	  23.2301000000	  45.7900000000
O	  41.8502000000	  23.0205000000	  46.5176000000
O	  42.7777000000	  21.2730000000	  48.1878000000
N	  42.4038000000	  23.7530000000	  48.9399000000
C	  44.4597000000	  22.9938000000	  47.1030000000
C	  42.3409000000	  25.1542000000	  48.5266000000
C	  42.9553000000	  23.4786000000	  50.3017000000
H	  44.0509000000	  23.5794000000	  50.2060000000
H	  42.7368000000	  22.4594000000	  50.6794000000
H	  42.7291000000	  24.1840000000	  51.0529000000
H	  41.3078000000	  25.4537000000	  48.8760000000
H	  42.4103000000	  25.2197000000	  47.4262000000
H	  43.2072000000	  25.7424000000	  48.8103000000
S	  39.7700000000	  19.8085000000	  46.2615000000
F	  37.6285000000	  18.5619000000	  45.8200000000
F	  37.7529000000	  19.3181000000	  47.8181000000
F	  37.3594000000	  20.6931000000	  46.1100000000
O	  40.0747000000	  21.0797000000	  45.6005000000
O	  40.4045000000	  19.4520000000	  47.5427000000
N	  40.3084000000	  18.6072000000	  45.1631000000
C	  37.9876000000	  19.5886000000	  46.5319000000
C	  40.1378000000	  17.1413000000	  45.5314000000
C	  40.1160000000	  18.8243000000	  43.7635000000
H	  40.4772000000	  19.8146000000	  43.4378000000
H	  39.0554000000	  18.7724000000	  43.5031000000
H	  40.5698000000	  18.0603000000	  43.1874000000
H	  41.1033000000	  16.6459000000	  45.2856000000
H	  39.2488000000	  16.8028000000	  45.0498000000
H	  39.9600000000	  17.0647000000	  46.6328000000
O	  41.3725000000	  22.7607000000	  43.1699000000
O	  41.5095000000	  23.7418000000	  41.2140000000
C	  42.5863000000	  23.5483000000	  43.1778000000
C	  42.3890000000	  24.5242000000	  41.9927000000
C	  41.1050000000	  22.6291000000	  41.8910000000
H	  42.9884000000	  23.9417000000	  44.1604000000
H	  43.3899000000	  22.8588000000	  42.8539000000
H	  41.7765000000	  25.4142000000	  42.2581000000
H	  43.2447000000	  24.8997000000	  41.5227000000
H	  41.6302000000	  21.7615000000	  41.5029000000
H	  40.1242000000	  22.3447000000	  41.6572000000
O	  39.3107000000	  23.7480000000	  44.8044000000
O	  38.0250000000	  25.3796000000	  45.7655000000
C	  38.9678000000	  24.6025000000	  43.7281000000
C	  37.7891000000	  25.4544000000	  44.3610000000
C	  38.9339000000	  24.3729000000	  45.9497000000
H	  39.6951000000	  25.3510000000	  43.5834000000
H	  38.7558000000	  24.2303000000	  42.6778000000
H	  37.7729000000	  26.4649000000	  43.9151000000
H	  36.8948000000	  24.8856000000	  44.0938000000
H	  38.6611000000	  23.6317000000	  46.6902000000
H	  39.9188000000	  24.9394000000	  46.2387000000
