56

Li	  55.1562000000	  46.8964000000	  50.2174000000
S	  54.3555000000	  50.0007000000	  51.4253000000
F	  54.7301000000	  49.2217000000	  53.9453000000
F	  55.6596000000	  51.2001000000	  53.3877000000
F	  53.6328000000	  50.9751000000	  53.6935000000
O	  55.0068000000	  50.9908000000	  50.5460000000
O	  54.7188000000	  48.5795000000	  51.1567000000
N	  52.6619000000	  50.1451000000	  51.2622000000
C	  54.6480000000	  50.3405000000	  53.2238000000
C	  52.0843000000	  51.5154000000	  51.0948000000
C	  51.7624000000	  49.0661000000	  51.6807000000
H	  52.0561000000	  48.0994000000	  51.2454000000
H	  50.7724000000	  49.2332000000	  51.3131000000
H	  51.6876000000	  49.0769000000	  52.8196000000
H	  51.1006000000	  51.5653000000	  50.7691000000
H	  52.7161000000	  52.0499000000	  50.3792000000
H	  52.1395000000	  52.0484000000	  52.0831000000
S	  52.6454000000	  45.0895000000	  51.4875000000
F	  51.0815000000	  46.5063000000	  52.9856000000
F	  51.7652000000	  44.7444000000	  53.8792000000
F	  53.1913000000	  46.3810000000	  53.6599000000
O	  51.4764000000	  44.7897000000	  50.6966000000
O	  53.7416000000	  45.8737000000	  51.0036000000
N	  53.2342000000	  43.5521000000	  51.9905000000
C	  52.1660000000	  45.7610000000	  53.1621000000
C	  52.3737000000	  42.5271000000	  52.2588000000
C	  54.4727000000	  43.5596000000	  52.7522000000
H	  55.2421000000	  44.2347000000	  52.3167000000
H	  54.9294000000	  42.5310000000	  52.8789000000
H	  54.2807000000	  44.0620000000	  53.7162000000
H	  51.3610000000	  42.7499000000	  52.0040000000
H	  52.3773000000	  42.3272000000	  53.3593000000
H	  52.5079000000	  41.6008000000	  51.6165000000
N	  57.8826000000	  48.1483000000	  52.6374000000
S	  57.0136000000	  46.8894000000	  52.3988000000
O	  55.9111000000	  46.7362000000	  53.2451000000
O	  56.8445000000	  46.5365000000	  51.0349000000
C	  58.1884000000	  45.6149000000	  52.9936000000
F	  57.7640000000	  44.3690000000	  52.8075000000
F	  58.2125000000	  45.7242000000	  54.3417000000
F	  59.4682027817	  45.8834000000	  52.5695000000
S	  58.3941000000	  49.2446000000	  51.6729000000
O	  58.8314000000	  50.5103000000	  52.2615000000
O	  57.6769000000	  49.4212000000	  50.4684000000
C	  60.0011927817	  48.5881000000	  51.0312000000
F	  60.6700227817	  49.5019000000	  50.4007000000
F	  60.8690527817	  48.2522000000	  51.9966000000
F	  59.9116027817	  47.5146000000	  50.2441000000
S	  55.7350000000	  46.9083000000	  48.1966000000
S	  53.7334000000	  46.3442000000	  47.6487000000
S	  52.3882000000	  47.8226000000	  48.3957000000
S	  47.9979000000	  49.8162000000	  48.1821000000
S	  45.9978000000	  49.8186000000	  47.4452000000
S	  44.5210000000	  49.7012000000	  48.9844000000
S	  49.2774000000	  48.6539000000	  46.9828000000
S	  50.3790000000	  47.2245000000	  47.8954000000
