43

Li	  57.1636000000	  36.5221000000	  21.3489000000
N	  53.7837000000	  38.9592000000	  22.3464000000
S	  53.1424000000	  40.2425000000	  23.0136000000
O	  53.8481000000	  40.6510000000	  24.2433000000
O	  52.5998000000	  41.2126000000	  22.0607000000
C	  51.5907000000	  39.4294000000	  23.5949000000
F	  50.9280000000	  38.9936000000	  22.5607000000
F	  50.8454000000	  40.2560000000	  24.3250000000
F	  51.8107000000	  38.3620000000	  24.3646000000
S	  54.5187000000	  38.7294000000	  20.9241000000
O	  55.6695000000	  37.8386000000	  21.0431000000
O	  54.4552000000	  39.8680000000	  20.0855000000
C	  53.2699000000	  37.5343000000	  20.2131000000
F	  53.1643000000	  36.4339000000	  20.9554000000
F	  52.0622000000	  38.0414000000	  20.1324000000
F	  53.6829000000	  37.1844000000	  18.9762000000
O	  59.5250827817	  37.0963000000	  18.0759000000
O	  58.4770000000	  36.5790000000	  20.0066000000
C	  60.0615927817	  35.8477000000	  18.4928000000
C	  59.7380627817	  35.8031000000	  19.9525000000
C	  58.7164000000	  37.6353000000	  19.0795000000
H	  59.5020227817	  35.1004000000	  17.8811000000
H	  61.0939327817	  35.6506000000	  18.1926000000
H	  59.6443827817	  34.8422000000	  20.3698000000
H	  60.5476927817	  36.3102000000	  20.4592000000
H	  59.2990727817	  38.4553000000	  19.6219000000
H	  57.8166000000	  38.1243000000	  18.7692000000
S	  64.9865427817	  31.4734000000	  29.6335000000
S	  63.5004527817	  32.9707000000	  29.8512000000
S	  62.6258427817	  33.5640000000	  27.9130000000
S	  59.1538927817	  34.6203000000	  25.0824000000
S	  60.1010627817	  35.7021000000	  23.4967000000
S	  58.6407000000	  37.1307000000	  22.9188000000
S	  59.5396427817	  35.2269000000	  27.0765000000
S	  60.4729727817	  33.6618000000	  28.2122000000
S	  55.8976000000	  34.7701000000	  20.7390000000
S	  56.7606000000	  33.1724000000	  21.7890000000
S	  55.3154000000	  31.7207000000	  22.2556000000
S	  56.0587000000	  27.2187000000	  24.1326000000
S	  56.8033000000	  26.5475000000	  26.0268000000
S	  55.6909000000	  27.5750000000	  27.4298000000
S	  57.0766000000	  28.9808000000	  23.5250000000
S	  56.0737000000	  30.7927000000	  23.9719000000
