70

Li	   6.5273800000	  44.0192000000	  22.2542000000
S	   7.8886900000	  45.8531000000	  24.7498000000
F	  10.3746000000	  46.2123000000	  23.8023000000
F	   9.5072700000	  48.0038000000	  24.6554000000
F	  10.1547000000	  46.3697000000	  25.9565000000
O	   6.8933400000	  46.9790000000	  24.8411000000
O	   7.8018400000	  44.9289000000	  23.6046000000
N	   7.7060600000	  44.8902000000	  26.1654000000
C	   9.6219900000	  46.6824000000	  24.8052000000
C	   7.4950000000	  45.5666000000	  27.4053000000
C	   8.3454800000	  43.5586000000	  26.2448000000
H	   9.4152300000	  43.7333000000	  26.4935000000
H	   8.2702300000	  43.0359000000	  25.3501000000
H	   7.9614800000	  42.7846000000	  26.9213000000
H	   7.8171300000	  44.9347000000	  28.1894000000
H	   6.4627400000	  45.8797000000	  27.4883000000
H	   8.1021000000	  46.4223000000	  27.4098000000
S	   8.9932300000	  44.0884000000	  19.7780000000
F	   9.1108100000	  46.5325000000	  18.7190000000
F	   8.8118300000	  46.5007000000	  20.8525000000
F	  10.7822000000	  46.1070000000	  20.0633000000
O	   7.8613300000	  43.7655000000	  20.7069000000
O	   8.8699300000	  43.6730000000	  18.3787000000
N	  10.3902000000	  43.3239000000	  20.3416000000
C	   9.4296200000	  45.9136000000	  19.8754000000
C	  10.7702000000	  42.0134000000	  19.7618000000
C	  10.6069000000	  43.4427000000	  21.7934000000
H	  11.7367000000	  43.3790000000	  21.8920000000
H	  10.1531000000	  42.6460000000	  22.3414000000
H	  10.3166000000	  44.4752000000	  22.0553000000
H	  11.8257000000	  41.8746000000	  19.7605000000
H	  10.2548000000	  41.9938000000	  18.7943000000
H	  10.4419000000	  41.2311000000	  20.3737000000
N	   6.3794000000	  39.7593000000	  22.0709000000
S	   7.3815300000	  39.9470000000	  23.2895000000
O	   8.2322800000	  41.1564000000	  23.2709000000
O	   6.8934400000	  39.5182000000	  24.5681000000
C	   8.6727000000	  38.6752000000	  22.9868000000
F	   8.0886800000	  37.5136000000	  23.0410000000
F	   9.6103100000	  38.7718000000	  23.9224000000
F	   9.2830800000	  38.8549000000	  21.8314000000
S	   5.9959500000	  40.9671000000	  21.1278000000
O	   6.7289000000	  40.8930000000	  19.8683000000
O	   5.9000700000	  42.2394000000	  21.8005000000
C	   4.2482000000	  40.5503000000	  20.7116000000
F	   3.4303000000	  40.8550000000	  21.7197000000
F	   3.8400700000	  41.2525000000	  19.6759000000
F	   4.1432600000	  39.3367000000	  20.4505000000
O	   5.4000300000	  43.7654000000	  24.0400000000
O	   3.7107900000	  44.1546000000	  25.6433000000
C	   5.2777200000	  42.6389000000	  24.9371000000
C	   4.6363400000	  43.2260000000	  26.1695000000
C	   4.2259500000	  44.4987000000	  24.3504000000
H	   4.5685700000	  41.9401000000	  24.5091000000
H	   6.1672500000	  42.0368000000	  25.1738000000
H	   4.1655100000	  42.4588000000	  26.8654000000
H	   5.3405900000	  43.9138000000	  26.6625000000
H	   4.4005300000	  45.5453000000	  24.3049000000
H	   3.4097800000	  44.2097000000	  23.6141000000
O	   5.2841500000	  45.2736000000	  21.2448000000
O	   4.3073800000	  47.0782000000	  20.6332000000
C	   4.2722200000	  44.8246000000	  20.3091000000
C	   3.8338200000	  46.1163000000	  19.7055000000
C	   5.5124200000	  46.5926000000	  21.0073000000
H	   4.5865600000	  44.1388000000	  19.4699000000
H	   3.4146500000	  44.3787000000	  20.7914000000
H	   4.3534600000	  46.3471000000	  18.7535000000
H	   2.7314700000	  46.1073000000	  19.4128000000
H	   5.8369700000	  47.0933000000	  21.9178000000
H	   6.2855700000	  46.7088000000	  20.2028000000
