55

Li	  41.8891000000	  20.7604000000	  53.5381000000
S	  39.1097000000	  20.0672000000	  55.2091000000
F	  38.7450000000	  17.5988000000	  54.2031000000
F	  37.9811000000	  18.0082000000	  56.2078000000
F	  36.9573000000	  18.7690000000	  54.4630000000
O	  39.5168000000	  20.2159000000	  56.6346000000
O	  40.1166000000	  20.0550000000	  54.1932000000
N	  38.0148000000	  21.3112000000	  54.8518000000
C	  38.1268000000	  18.4889000000	  54.9876000000
C	  37.7426000000	  21.7250000000	  53.4896000000
C	  37.0092000000	  21.7643000000	  55.8314000000
H	  36.7135000000	  22.7360000000	  55.6169000000
H	  37.3173000000	  21.6393000000	  56.9093000000
H	  36.0880000000	  21.0264000000	  55.7827000000
H	  38.4354000000	  21.3523000000	  52.7995000000
H	  37.8271000000	  22.8348000000	  53.4388000000
H	  36.7823000000	  21.4221000000	  53.0387000000
N	  44.6695000000	  19.5743000000	  56.2610000000
S	  43.3575000000	  20.4067000000	  56.4774000000
O	  42.7606000000	  20.9494000000	  55.2655000000
O	  42.5053000000	  19.7688000000	  57.4812000000
C	  44.0260000000	  21.9417000000	  57.3579000000
F	  44.7440000000	  21.5610000000	  58.3280000000
F	  43.0260000000	  22.7305000000	  57.8937000000
F	  44.7323000000	  22.6891000000	  56.5890000000
S	  45.1732000000	  18.3085000000	  56.8930000000
O	  45.1749000000	  17.2225000000	  55.9429000000
O	  44.6112000000	  17.9933000000	  58.1667000000
C	  46.9732000000	  18.5558000000	  57.2710000000
F	  47.5423000000	  17.4559000000	  57.5125000000
F	  47.5578000000	  19.0900000000	  56.2355000000
F	  47.1869000000	  19.3866000000	  58.2020000000
N	  41.6855000000	  24.8224000000	  52.2767000000
S	  41.9228000000	  23.8371000000	  53.4229000000
O	  41.1048000000	  22.6717000000	  53.3585000000
O	  43.3309000000	  23.7072000000	  53.7002000000
C	  41.1948000000	  24.8925000000	  54.8684000000
F	  41.4179000000	  24.1977000000	  55.9968000000
F	  39.8914000000	  25.1394000000	  54.7606000000
F	  41.9000000000	  26.0005000000	  54.9373000000
S	  41.1188000000	  24.5493000000	  50.8085000000
O	  40.8511000000	  23.1819000000	  50.3904000000
O	  41.7237000000	  25.3956000000	  49.8108000000
C	  39.4158000000	  25.3372000000	  50.9342000000
F	  38.6931000000	  25.0447000000	  49.8551000000
F	  38.7361000000	  24.8688000000	  51.9273000000
F	  39.4669000000	  26.6395000000	  51.0169000000
S	  42.9554000000	  20.1167000000	  51.9440000000
S	  43.0846000000	  18.2034000000	  52.9724000000
S	  42.3213000000	  16.7968000000	  51.6482000000
S	  38.8647000000	  13.7571000000	  51.0328000000
S	  39.5067000000	  12.1376000000	  49.7096000000
S	  40.9307000000	  10.8460000000	  50.7008000000
S	  39.4056000000	  15.6227000000	  50.1914000000
S	  40.2695000000	  17.0432000000	  51.4936000000
