69

Li	  57.3126000000	  21.6207000000	   5.5279600000
S	  58.8140000000	  23.5391000000	   7.8189200000
F	  60.7043627817	  22.3740000000	   6.6118500000
F	  61.3757727817	  23.8530000000	   8.0165900000
F	  60.6445427817	  21.9386000000	   8.7958400000
O	  58.0113000000	  22.8281000000	   6.8006000000
O	  58.2230000000	  23.6126000000	   9.1736500000
N	  58.9069327817	  25.1656000000	   7.2442800000
C	  60.5269127817	  22.8595000000	   7.8426400000
C	  59.2506327817	  25.3389000000	   5.8201800000
C	  59.2453327817	  26.1144000000	   8.3572100000
H	  59.5115827817	  27.1634000000	   8.0076200000
H	  60.0235527817	  25.6971000000	   8.9719000000
H	  58.3957000000	  26.2367000000	   9.0423300000
H	  58.9330827817	  26.3526000000	   5.4424600000
H	  58.7631000000	  24.6050000000	   5.2124300000
H	  60.3390127817	  25.1417000000	   5.7359800000
N	  58.6026000000	  18.2442000000	   8.4988000000
S	  57.8076000000	  19.6656000000	   8.4282200000
O	  58.1437000000	  20.5400000000	   9.4821300000
O	  57.6331000000	  20.1770000000	   7.1297500000
C	  56.1721000000	  19.0398000000	   8.8363000000
F	  55.1862000000	  19.9482000000	   8.8668800000
F	  56.2066000000	  18.6441000000	  10.0997000000
F	  55.8198000000	  18.0618000000	   8.0040600000
S	  58.9505027817	  17.3006000000	   7.3274100000
O	  59.7977027817	  17.8824000000	   6.3658700000
O	  57.9749000000	  16.3468000000	   6.8455300000
C	  60.0795627817	  16.2122000000	   8.2689200000
F	  61.1137827817	  16.9143000000	   8.5687500000
F	  59.6090727817	  15.6792000000	   9.3762000000
F	  60.6068127817	  15.2455000000	   7.5525000000
N	  53.4787000000	  23.9408000000	   5.2358200000
S	  53.7065000000	  24.0676000000	   3.6592400000
O	  54.4953000000	  23.0011000000	   3.0739100000
O	  52.6602000000	  24.5802000000	   2.8452400000
C	  54.9937000000	  25.3438000000	   3.7441000000
F	  54.6121000000	  26.4236000000	   4.3596200000
F	  55.3974000000	  25.6719000000	   2.4926800000
F	  56.0686000000	  24.9472000000	   4.4654300000
S	  54.0603000000	  22.8447000000	   6.1719300000
O	  55.3943000000	  22.3816000000	   5.8528700000
O	  53.1408000000	  21.8689000000	   6.7149500000
C	  54.5003000000	  23.8677000000	   7.5693500000
F	  55.0183000000	  23.1569000000	   8.4776900000
F	  55.2875000000	  24.9267000000	   7.3013500000
F	  53.4210000000	  24.4373000000	   8.0408200000
O	  56.5077000000	  20.1559000000	   4.4970600000
O	  54.8986000000	  18.6855000000	   3.7089300000
C	  57.0927000000	  18.9439000000	   3.9959000000
C	  55.9956000000	  17.8765000000	   4.2020500000
C	  55.0796000000	  19.8581000000	   4.3718800000
H	  57.4534000000	  19.1730000000	   2.9863400000
H	  57.9517000000	  18.7267000000	   4.5613400000
H	  56.0820000000	  17.0413000000	   3.5217200000
H	  55.8559000000	  17.4601000000	   5.2289100000
H	  54.7397000000	  19.8518000000	   5.3962800000
H	  54.6083000000	  20.7103000000	   3.8033600000
O	  58.7016000000	  22.4866000000	   1.6946300000
O	  58.4165000000	  21.9595000000	   3.9637700000
C	  59.7773927817	  21.6215000000	   2.1311500000
C	  59.8185627817	  21.8975000000	   3.6122400000
C	  57.8967000000	  22.5843000000	   2.8197900000
H	  59.4318227817	  20.5909000000	   2.0663900000
H	  60.6931927817	  21.7775000000	   1.6464500000
H	  60.3642627817	  21.1262000000	   4.1052700000
H	  60.3183327817	  22.8698000000	   3.8145700000
H	  57.8024000000	  23.5999000000	   2.9940000000
H	  56.9036000000	  22.1186000000	   2.6813900000
