47

Li	  56.4961000000	  19.0597000000	  12.5467000000
S	  58.3249000000	  19.7140000000	   9.9340600000
F	  59.7891327817	  18.3211000000	  11.4503000000
F	  60.4474427817	  18.3984000000	   9.4099000000
F	  60.9712227817	  20.0931000000	  10.7202000000
O	  57.8557000000	  19.0300000000	   8.7100700000
O	  57.3793000000	  19.6791000000	  11.1182000000
N	  58.6166000000	  21.3685000000	   9.4387900000
C	  60.0425827817	  19.1071000000	  10.4248000000
C	  59.5734527817	  21.5432000000	   8.2582800000
C	  58.7915000000	  22.4177000000	  10.4710000000
H	  58.2509000000	  22.1530000000	  11.3417000000
H	  58.3803000000	  23.2868000000	  10.0074000000
H	  59.8101927817	  22.6264000000	  10.7550000000
H	  59.2251027817	  22.4347000000	   7.7114300000
H	  59.5829927817	  20.7236000000	   7.4423200000
H	  60.5538927817	  21.8004000000	   8.6147200000
O	  53.2415000000	  17.5043000000	  11.2768000000
O	  55.2653000000	  17.6624000000	  12.1865000000
C	  53.4673000000	  16.3428000000	  12.0621000000
C	  54.5615000000	  16.7191000000	  12.9730000000
C	  54.5503000000	  17.8605000000	  11.0303000000
H	  52.6019000000	  15.9777000000	  12.5721000000
H	  53.7083000000	  15.4929000000	  11.4401000000
H	  54.3049000000	  17.2262000000	  13.8972000000
H	  55.1506000000	  15.8297000000	  13.4163000000
H	  54.9606000000	  17.2145000000	  10.2891000000
H	  54.4925000000	  18.8801000000	  10.6843000000
O	  53.3257000000	  21.6469000000	  13.3273000000
O	  55.0479000000	  20.1398000000	  13.1713000000
C	  54.4544000000	  22.3592000000	  12.9885000000
C	  55.5793000000	  21.4066000000	  13.4619000000
C	  53.7163000000	  20.2426000000	  13.3914000000
H	  54.5337000000	  22.5255000000	  11.9289000000
H	  54.3805000000	  23.3444000000	  13.4524000000
H	  56.4520000000	  21.6965000000	  12.9209000000
H	  55.7956000000	  21.6053000000	  14.4701000000
H	  53.4077000000	  19.9904000000	  14.4200000000
H	  53.0959000000	  19.7466000000	  12.6384000000
S	  57.6745000000	  18.7819000000	  14.2166000000
S	  59.1283827817	  20.3543000000	  13.8666000000
S	  59.1459627817	  21.8519000000	  15.4545000000
S	  61.4275827817	  23.9566000000	  19.1243000000
S	  63.4658827817	  24.0351000000	  19.8421000000
S	  63.9714227817	  25.9153000000	  20.6319000000
S	  61.5981927817	  23.9272000000	  17.0720000000
S	  61.0805327817	  22.0654000000	  16.2384000000
