35

Li	  58.5409000000	   7.2746600000	  10.2034000000
O	  55.7240000000	   4.5181100000	  10.0446000000
O	  57.3873000000	   5.9650700000	   9.9440600000
C	  55.6360000000	   5.1636700000	   8.7543700000
C	  56.9975000000	   5.7695700000	   8.5291900000
C	  56.9743000000	   4.7787200000	  10.4874000000
H	  55.4618000000	   4.4821700000	   7.9162700000
H	  54.9115000000	   5.9245400000	   8.9730500000
H	  57.5566000000	   5.1035000000	   7.8848400000
H	  57.0531000000	   6.7497400000	   8.0009500000
H	  56.9509000000	   4.9262700000	  11.6052000000
H	  57.5836000000	   3.9067000000	  10.2801000000
N	  55.3781000000	   8.9886900000	   9.1328900000
S	  56.3423000000	   9.6291900000	  10.2336000000
O	  57.6873000000	   9.0854400000	  10.1317000000
O	  56.2479000000	  11.0371000000	  10.5143000000
C	  55.6812000000	   8.8552100000	  11.7349000000
F	  55.8346000000	   7.5379900000	  11.6899000000
F	  54.3534000000	   8.9740200000	  11.8025000000
F	  56.0770000000	   9.2211100000	  12.9407000000
S	  54.1748000000	   9.5709700000	   8.2948300000
O	  54.4194000000	   9.6002900000	   6.8601400000
O	  53.5458000000	  10.7772000000	   8.7884200000
C	  52.9775000000	   8.2195200000	   8.4760100000
F	  53.2671000000	   7.3000200000	   7.4971800000
F	  52.9135000000	   7.7140600000	   9.7063900000
F	  51.8396000000	   8.7373600000	   8.2079700000
S	  55.9481000000	   7.5948200000	   5.1472900000
S	  57.9038000000	   8.2536800000	   4.6262900000
S	  59.2510753005	   7.2147300000	   5.7664900000
S	  60.5518453005	   5.5223600000	   9.8327000000
S	  60.6322953005	   6.0031600000	  11.8929000000
S	  58.9752000000	   7.2559800000	  12.3302000000
S	  61.2156553005	   7.1581100000	   8.5914100000
S	  59.6791753005	   8.0673100000	   7.6058400000
