49

Li	  12.0710000000	  45.7143000000	  14.9142000000
O	  11.1921000000	  44.9414000000	  13.4924000000
O	   9.5024500000	  45.7442000000	  12.3230000000
C	  10.2165000000	  44.0054000000	  13.7729000000
C	   8.9857100000	  44.6890000000	  13.1130000000
C	  10.7872000000	  45.4257000000	  12.2387000000
H	  10.4169000000	  43.0045000000	  13.2851000000
H	  10.2931000000	  43.7935000000	  14.8990000000
H	   8.5000500000	  44.0030000000	  12.3849000000
H	   8.2909500000	  45.1238000000	  13.8431000000
H	  11.1024000000	  46.3834000000	  11.9803000000
H	  10.8177000000	  44.7222000000	  11.3576000000
O	   8.4930700000	  46.3977000000	  16.1252000000
O	  10.7269000000	  45.9398000000	  16.3226000000
C	   8.5860800000	  45.6976000000	  17.3688000000
C	   9.9635900000	  45.2268000000	  17.3118000000
C	   9.8041000000	  46.8739000000	  15.9326000000
H	   8.3297500000	  46.4443000000	  18.1394000000
H	   7.8754300000	  44.8580000000	  17.4289000000
H	  10.6002000000	  45.2819000000	  18.2694000000
H	   9.7981800000	  44.1467000000	  17.0413000000
H	   9.8595700000	  47.2873000000	  14.8904000000
H	  10.1237000000	  47.7791000000	  16.5478000000
O	  13.4426000000	  44.5991000000	  15.1302000000
O	  14.1052000000	  42.4440000000	  15.0364000000
C	  13.4799000000	  44.2032000000	  16.4599000000
C	  13.7307000000	  42.6544000000	  16.3558000000
C	  14.2460000000	  43.7183000000	  14.4478000000
H	  14.1960000000	  44.7554000000	  17.0534000000
H	  12.4765000000	  44.3769000000	  16.8324000000
H	  14.4917000000	  42.2193000000	  17.0466000000
H	  12.7222000000	  42.3951000000	  16.5995000000
H	  13.9472000000	  43.7364000000	  13.3633000000
H	  15.2626000000	  44.0916000000	  14.4563000000
N	  11.9520000000	  49.5275000000	  16.2015000000
S	  13.1868000000	  48.6934000000	  15.8156000000
O	  12.8821000000	  47.4311000000	  15.1912000000
O	  14.2242000000	  49.4817000000	  15.1522000000
C	  14.0332000000	  48.2261000000	  17.3766000000
F	  15.1041000000	  47.4901000000	  17.1513000000
F	  13.1782000000	  47.5964000000	  18.1626000000
F	  14.3923000000	  49.2759000000	  18.1837000000
S	  11.7282000000	  51.0778000000	  16.0669000000
O	  12.5202000000	  51.7932000000	  15.1723000000
O	  11.3925000000	  51.7630000000	  17.2998000000
C	  10.0738000000	  51.0596000000	  15.2525000000
F	  10.1353000000	  50.3675000000	  14.1523000000
F	   9.0918900000	  50.5257000000	  16.0129000000
F	   9.7608400000	  52.2785000000	  14.9218000000
