46

Li	  26.2226000000	  15.7818000000	  40.0299000000
O	  24.9082000000	  17.0046000000	  40.2967000000
O	  23.6646000000	  18.6371000000	  41.2934000000
C	  23.5407000000	  16.6172000000	  40.2674000000
C	  22.9043000000	  17.4268000000	  41.3866000000
C	  24.8448000000	  18.3503000000	  40.6186000000
H	  23.1993000000	  16.8357000000	  39.2961000000
H	  23.4375000000	  15.5739000000	  40.4514000000
H	  21.8432000000	  17.7277000000	  41.1554000000
H	  22.8158000000	  16.9572000000	  42.3343000000
H	  25.5049000000	  18.6013000000	  41.4315000000
H	  24.9720000000	  18.8425000000	  39.6717000000
O	  28.9059000000	  18.5028000000	  40.1349000000
O	  27.8155000000	  16.5996000000	  39.9437000000
C	  29.9053000000	  17.6052000000	  40.5587000000
C	  29.0287000000	  16.2533000000	  40.6670000000
C	  28.0988000000	  17.8560000000	  39.2985000000
H	  30.6213000000	  17.4584000000	  39.6926000000
H	  30.3179000000	  18.0286000000	  41.4676000000
H	  29.5240000000	  15.4835000000	  40.1330000000
H	  28.8525000000	  16.0426000000	  41.6981000000
H	  27.1800000000	  18.4719000000	  39.2549000000
H	  28.6177000000	  17.6117000000	  38.4094000000
N	  25.7801000000	  15.2116000000	  44.5893000000
S	  26.7445000000	  16.2901000000	  45.1599000000
O	  27.8323000000	  16.6081000000	  44.2553000000
O	  26.1022000000	  17.4000000000	  45.8600000000
C	  27.5430000000	  15.3954000000	  46.4780000000
F	  26.7142000000	  14.8630000000	  47.3925000000
F	  28.3269000000	  16.1903000000	  47.1084000000
F	  28.3284000000	  14.5233000000	  45.9545000000
S	  25.4960000000	  14.8789000000	  43.1354000000
O	  26.3254000000	  15.4556000000	  42.1114000000
O	  24.0772000000	  14.6638000000	  42.8830000000
C	  26.2387000000	  13.1810000000	  43.1064000000
F	  26.1236000000	  12.5790000000	  41.9190000000
F	  27.5251000000	  13.2263000000	  43.4098000000
F	  25.6396000000	  12.3856000000	  44.0098000000
S	  25.7285000000	  13.9288000000	  39.3261000000
S	  26.0705000000	  15.3100000000	  37.7767000000
S	  27.3730000000	  14.5984000000	  36.2600000000
S	  32.0005000000	  17.0089000000	  35.2959000000
S	  33.2530000000	  17.3012000000	  36.9889000000
S	  33.8746000000	  19.2452000000	  37.0621000000
S	  29.9156000000	  16.9672000000	  35.8286000000
S	  29.3947000000	  15.0679000000	  36.5753000000
