35

Li	  19.4179000000	   7.4224400000	  35.3679000000
O	  20.9485000000	   3.9843000000	  36.9410000000
O	  20.0277000000	   5.8270100000	  35.8559000000
C	  19.7910000000	   3.5785700000	  36.2751000000
C	  19.0612000000	   4.8990900000	  36.0856000000
C	  20.9799000000	   5.4418900000	  36.8140000000
H	  20.0705000000	   3.1945600000	  35.3207000000
H	  19.3497000000	   2.7946000000	  36.9056000000
H	  18.4583000000	   4.8424300000	  35.1481000000
H	  18.5257000000	   5.1926200000	  36.9625000000
H	  20.5998000000	   5.7428000000	  37.8813000000
H	  22.0010000000	   5.7822600000	  36.5900000000
N	  16.6900000000	   8.1148100000	  37.4852000000
S	  18.0004000000	   8.5540900000	  38.1875000000
O	  19.1030000000	   7.8712900000	  37.5779000000
O	  18.1731000000	   9.9220400000	  38.5282000000
C	  17.8789000000	   7.7259000000	  39.8930000000
F	  17.9352000000	   6.4148400000	  39.8609000000
F	  16.7262000000	   8.0183400000	  40.4490000000
F	  18.8827000000	   8.0253100000	  40.6888000000
S	  16.5320000000	   7.4795400000	  36.1201000000
O	  16.1010000000	   6.1344800000	  36.2252000000
O	  17.5149000000	   7.7802300000	  35.1105000000
C	  15.1066000000	   8.4330200000	  35.4735000000
F	  14.2211000000	   8.5922500000	  36.4281000000
F	  15.3830000000	   9.6338600000	  35.0560000000
F	  14.5796000000	   7.8225400000	  34.4494000000
S	  20.9795000000	   8.5484500000	  34.8740000000
S	  20.3400000000	   7.4285100000	  33.2179000000
S	  19.3527000000	   8.4849000000	  31.8158000000
S	  18.2204000000	   7.7925100000	  27.8216000000
S	  18.7568000000	   9.1901200000	  26.3177000000
S	  17.3818000000	   9.1372300000	  24.7152000000
S	  16.9541000000	   8.5635600000	  29.3027000000
S	  17.5366000000	   7.8722000000	  31.2323000000
