64

Li	  45.0485000000	  34.8722000000	  32.4825000000
O	  43.7656000000	  34.9214000000	  33.8912000000
O	  41.9342000000	  34.9123000000	  35.3439000000
C	  43.4585000000	  36.2453000000	  34.4961000000
C	  42.6657000000	  35.9780000000	  35.7297000000
C	  42.8730000000	  34.1386000000	  34.5981000000
H	  44.3358000000	  36.8795000000	  34.7329000000
H	  42.8637000000	  36.7829000000	  33.7864000000
H	  43.2686000000	  35.7268000000	  36.5532000000
H	  42.1576000000	  36.8772000000	  36.0794000000
H	  42.4959000000	  33.3113000000	  33.9974000000
H	  43.3949000000	  33.5602000000	  35.3110000000
O	  42.0301000000	  33.7387000000	  30.6034000000
O	  44.1798000000	  34.4205000000	  31.0102000000
C	  42.8786000000	  32.8801000000	  29.9020000000
C	  44.2901000000	  33.4804000000	  29.9371000000
C	  42.8384000000	  34.8696000000	  30.7851000000
H	  42.9294000000	  31.8561000000	  30.3012000000
H	  42.5754000000	  32.8878000000	  28.8387000000
H	  45.1270000000	  32.7789000000	  30.0320000000
H	  44.4236000000	  33.9326000000	  28.9379000000
H	  42.6255000000	  35.5761000000	  29.9283000000
H	  42.5508000000	  35.5670000000	  31.5969000000
O	  46.9269000000	  34.9516000000	  32.6443000000
O	  49.1767000000	  34.7072000000	  32.8239000000
C	  47.4880000000	  35.0304000000	  31.3554000000
C	  48.8029000000	  34.2846000000	  31.5190000000
C	  47.9925000000	  35.0702000000	  33.4543000000
H	  46.8110000000	  34.7741000000	  30.5193000000
H	  47.6807000000	  36.0795000000	  31.1324000000
H	  48.7092000000	  33.1703000000	  31.4051000000
H	  49.6591000000	  34.5857000000	  30.9473000000
H	  48.0862000000	  36.0812000000	  33.9201000000
H	  47.8231000000	  34.4445000000	  34.3362000000
N	  46.9272000000	  31.4479000000	  33.9555000000
S	  48.1397000000	  30.4606000000	  34.1079000000
O	  47.7160000000	  29.1410000000	  34.3862000000
O	  49.2811000000	  30.7257000000	  33.2148000000
C	  48.7726000000	  31.0215000000	  35.7921000000
F	  49.3668000000	  32.2087000000	  35.7920000000
F	  49.5289000000	  30.1123000000	  36.3341000000
F	  47.8163000000	  31.2341000000	  36.6872000000
S	  45.9149000000	  31.4548000000	  32.7673000000
O	  46.2882000000	  31.0267000000	  31.4713000000
O	  45.1129000000	  32.6220000000	  32.8530000000
C	  44.6278000000	  30.3118000000	  33.4135000000
F	  44.1977000000	  30.7469000000	  34.6468000000
F	  43.5394000000	  30.2760000000	  32.5966000000
F	  45.0165000000	  29.0325000000	  33.6107000000
N	  43.1208000000	  38.8776000000	  31.5582000000
S	  42.1890000000	  39.3116000000	  30.3941000000
O	  42.2727000000	  40.7025000000	  29.9340000000
O	  41.9254000000	  38.3424000000	  29.3914000000
C	  40.6107000000	  39.3539000000	  31.3005000000
F	  40.5128000000	  40.4263000000	  32.0143000000
F	  40.5833000000	  38.4133000000	  32.2394000000
F	  39.5394000000	  39.3221000000	  30.5148000000
S	  44.6210000000	  38.2993000000	  31.4420000000
O	  45.3290000000	  38.6669000000	  30.2375000000
O	  44.8660000000	  36.9870000000	  31.9192000000
C	  45.3765000000	  39.3817000000	  32.7689000000
F	  45.2573000000	  40.6309000000	  32.4211000000
F	  44.8963000000	  39.3702000000	  33.9622000000
F	  46.6212000000	  39.1400000000	  32.7923000000
