42

Li	  22.6351000000	  36.4466000000	  56.0025000000
O	  22.7284000000	  38.4615000000	  55.8018000000
O	  24.4472000000	  39.9031000000	  55.6164000000
C	  22.6716000000	  38.9912000000	  54.4991000000
C	  23.7066000000	  40.1349000000	  54.4776000000
C	  23.4706000000	  39.4106000000	  56.5203000000
H	  22.8493000000	  38.2156000000	  53.6993000000
H	  21.6591000000	  39.4037000000	  54.2804000000
H	  24.2492000000	  40.0396000000	  53.5222000000
H	  23.2517000000	  41.0625000000	  54.5651000000
H	  22.8229000000	  40.2182000000	  56.8789000000
H	  23.9879000000	  38.9409000000	  57.3641000000
O	  26.4738000000	  35.9723000000	  55.5259000000
O	  24.3505000000	  36.3754000000	  55.5240000000
C	  26.1095000000	  35.2954000000	  54.3804000000
C	  24.6248000000	  35.6122000000	  54.3576000000
C	  25.5580000000	  36.9317000000	  55.7455000000
H	  26.6502000000	  35.6335000000	  53.5596000000
H	  26.3613000000	  34.2861000000	  54.3817000000
H	  24.3868000000	  36.2300000000	  53.4216000000
H	  24.0994000000	  34.6845000000	  54.3914000000
H	  25.6553000000	  37.3646000000	  56.7631000000
H	  25.6372000000	  37.7001000000	  55.0188000000
O	  23.4699000000	  34.7970000000	  59.4074804055
O	  22.4161000000	  36.2142000000	  58.0013000000
C	  22.1572000000	  34.2596000000	  59.0891024055
C	  21.7502000000	  34.9748000000	  57.7978000000
C	  23.3395000000	  36.1111000000	  59.0069000000
H	  22.1279000000	  33.1068000000	  58.9399000000
H	  21.5498000000	  34.4900000000	  59.9100704055
H	  22.2608000000	  34.3632000000	  57.0147000000
H	  20.7023000000	  35.1678000000	  57.5361000000
H	  22.9139000000	  36.7325000000	  59.7883504055
H	  24.2265000000	  36.5481000000	  58.8032000000
S	  26.0434000000	  32.1125000000	  60.4074004055
S	  26.9971000000	  32.3580000000	  58.5195000000
S	  25.6446000000	  33.1582000000	  57.1534000000
S	  22.3367000000	  32.7177000000	  53.9569000000
S	  20.7163000000	  33.8554000000	  54.3952000000
S	  21.1880000000	  35.8971000000	  54.3768000000
S	  23.0238000000	  31.5192000000	  55.5265000000
S	  25.1293000000	  31.6873000000	  55.6852000000
