68

Li	  47.4225000000	  36.2419000000	  14.3958000000
O	  50.4155000000	  34.1255000000	  16.3910000000
O	  48.8028000000	  34.7443000000	  14.9747000000
C	  50.7708000000	  33.5431000000	  15.1799000000
C	  49.4983000000	  33.6764000000	  14.3424000000
C	  49.0922000000	  34.4965000000	  16.3023000000
H	  51.6532000000	  34.0089000000	  14.7315000000
H	  51.1072000000	  32.5210000000	  15.3586000000
H	  49.7371000000	  33.9595000000	  13.3558000000
H	  49.0919000000	  32.7562000000	  14.3360000000
H	  48.3220000000	  33.8793000000	  16.7485000000
H	  48.8551000000	  35.4318000000	  16.8648000000
O	  46.2281000000	  34.4662000000	  13.5889000000
O	  45.0029000000	  33.5904000000	  11.8290000000
C	  45.5446000000	  33.2591000000	  13.9835000000
C	  44.3320000000	  33.2927000000	  13.0260000000
C	  46.0524000000	  34.4467000000	  12.2541000000
H	  46.1638000000	  32.3688000000	  13.7537000000
H	  45.1961000000	  33.1482000000	  15.0304000000
H	  43.8076000000	  32.3326000000	  13.0103000000
H	  43.6140000000	  34.0868000000	  13.3208000000
H	  45.9603000000	  35.3822000000	  11.7612000000
H	  46.9624000000	  34.0405000000	  11.8119000000
N	  50.1424000000	  38.2676000000	  13.4521000000
S	  49.2316000000	  37.5117000000	  12.4077000000
O	  48.5115000000	  36.3700000000	  12.9086000000
O	  48.5987000000	  38.3436000000	  11.4411000000
C	  50.6327000000	  36.7077000000	  11.4985000000
F	  51.6126000000	  37.5018000000	  11.1766000000
F	  50.1663000000	  36.2033000000	  10.3370000000
F	  51.1495000000	  35.6995000000	  12.1270000000
S	  49.9855000000	  38.3555000000	  15.0283000000
O	  48.8923000000	  37.5911000000	  15.4919000000
O	  50.1682000000	  39.7319000000	  15.5667000000
C	  51.4243000000	  37.4988000000	  15.5358000000
F	  52.5222000000	  38.1387000000	  15.0211000000
F	  51.5100000000	  37.5265000000	  16.8470000000
F	  51.4850000000	  36.2603000000	  15.1400000000
N	  46.6632000000	  40.5396000000	  14.6453000000
S	  45.6746000000	  39.4331000000	  14.0190000000
O	  46.3658000000	  38.1698000000	  13.8220000000
O	  44.4046000000	  39.3487000000	  14.7682000000
C	  45.0635000000	  40.1267000000	  12.3806000000
F	  46.0304000000	  40.0871000000	  11.4544000000
F	  44.5929000000	  41.3234000000	  12.5219000000
F	  44.1642000000	  39.3205000000	  11.8945000000
S	  46.6364000000	  41.2876000000	  16.0496000000
O	  47.8757000000	  41.2130000000	  16.8479000000
O	  45.3867000000	  41.1695000000	  16.7482000000
C	  46.5491000000	  43.0128000000	  15.4832000000
F	  47.4422000000	  43.2879000000	  14.5471000000
F	  45.4123000000	  43.3123000000	  14.8281000000
F	  46.6641000000	  43.8314000000	  16.4568000000
N	  46.9950000000	  36.6679000000	  18.3025000000
S	  47.7007000000	  37.8762000000	  19.0312000000
O	  48.6474000000	  38.5440000000	  18.1875000000
O	  46.8257000000	  38.6917000000	  19.9048000000
C	  48.8077000000	  37.0796000000	  20.2169000000
F	  49.3812000000	  37.9332000000	  21.0472000000
F	  49.8153000000	  36.4346000000	  19.6687000000
F	  48.1559000000	  36.1931000000	  20.9966000000
S	  45.8097000000	  36.7793000000	  17.2545000000
O	  46.1662000000	  36.3278000000	  15.9140000000
O	  45.1957000000	  38.1183000000	  17.4162000000
C	  44.4554000000	  35.7187000000	  17.9355000000
F	  44.8159000000	  34.4631000000	  17.8793000000
F	  44.2231000000	  35.9395000000	  19.2112000000
F	  43.3321000000	  35.8826000000	  17.2550000000
