50

Li	  32.0352000000	  51.6598000000	  28.3092000000
O	  34.5494000000	  48.5522000000	  29.8549000000
O	  33.1792000000	  49.8728000000	  28.7304000000
C	  35.3533000000	  49.5879000000	  29.4469000000
C	  34.5148000000	  50.0989000000	  28.2859000000
C	  33.2023000000	  48.8738000000	  29.6192000000
H	  35.4366000000	  50.3017000000	  30.2432000000
H	  36.2143000000	  49.1544000000	  29.1531000000
H	  34.7236000000	  51.1579000000	  28.0489000000
H	  34.6404000000	  49.5620000000	  27.3672000000
H	  32.6871000000	  47.9629000000	  29.3143000000
H	  32.7905000000	  49.1815000000	  30.6004000000
N	  29.7411000000	  50.3503000000	  24.7312000000
S	  28.2427000000	  49.9972000000	  24.3519000000
O	  28.0393000000	  48.6497000000	  23.9085000000
O	  27.2040000000	  50.6644000000	  25.1228000000
C	  28.1876000000	  50.9334000000	  22.7713000000
F	  26.9830000000	  50.8488000000	  22.2060000000
F	  29.1130000000	  50.4950000000	  21.8821000000
F	  28.4247000000	  52.2101000000	  22.8843000000
S	  30.2613000000	  50.0393000000	  26.1084000000
O	  29.2797000000	  49.8199000000	  27.1335000000
O	  31.3541000000	  50.9364000000	  26.5027000000
C	  31.1522000000	  48.4736000000	  25.9688000000
F	  30.6621000000	  47.6473000000	  25.0809000000
F	  32.4593000000	  48.6039000000	  25.7062000000
F	  31.0917000000	  47.8803000000	  27.1383000000
N	  29.6027000000	  52.7099000000	  31.2150000000
S	  29.0191000000	  52.6442000000	  29.7459000000
O	  28.0189000000	  53.6236000000	  29.5594000000
O	  29.9041000000	  52.4630000000	  28.6167000000
C	  28.0659000000	  51.0745000000	  29.9023000000
F	  28.7370000000	  49.9757000000	  30.0927000000
F	  27.3240000000	  50.8211000000	  28.8560000000
F	  27.1843000000	  51.1717000000	  30.9321000000
S	  31.0849000000	  52.3923000000	  31.5914000000
O	  31.7508000000	  53.5061000000	  32.1786000000
O	  31.7140000000	  51.6850000000	  30.5280000000
C	  30.8401000000	  51.1605000000	  32.8636000000
F	  31.9753000000	  50.5515000000	  33.1317000000
F	  30.4443000000	  51.6324000000	  33.9952000000
F	  29.9091000000	  50.3459000000	  32.4784000000
S	  33.0263000000	  53.4149000000	  27.8865000000
S	  34.3909000000	  54.5663000000	  28.9725000000
S	  35.6519000000	  53.3742000000	  30.2229000000
S	  34.8543000000	  50.2970000000	  34.0915000000
S	  34.7244000000	  48.6559000000	  32.7566000000
S	  36.1150000000	  47.0937000000	  33.0028000000
S	  36.0852000000	  51.8565000000	  33.3739000000
S	  35.2054000000	  53.4691000000	  32.3666000000
