50

Li	  30.5619000000	  54.0305000000	  33.2423000000
O	  32.1389000000	  53.2665000000	  32.3635000000
O	  33.3480000000	  54.5290000000	  30.9669000000
C	  31.8858000000	  52.7163000000	  31.0614000000
C	  32.8074000000	  53.5584000000	  30.0861000000
C	  33.3568000000	  53.9269000000	  32.2380000000
H	  32.2757000000	  51.6874000000	  31.0428000000
H	  30.8852000000	  52.6074000000	  30.7955000000
H	  33.6524000000	  52.9602000000	  29.8927000000
H	  32.4680000000	  53.8511000000	  29.1282000000
H	  33.4519000000	  54.6987000000	  32.9878000000
H	  34.1846000000	  53.2650000000	  32.4588000000
N	  30.5263000000	  57.3632000000	  31.0827000000
S	  31.8658000000	  58.0108000000	  30.6886000000
O	  33.0492000000	  57.3081000000	  31.0289000000
O	  31.7933000000	  58.5545000000	  29.3668000000
C	  31.8484000000	  59.4625197089	  31.7760000000
F	  32.1789000000	  59.2043297089	  33.0461000000
F	  30.7345000000	  60.1073297089	  31.8630000000
F	  32.8066000000	  60.3354597089	  31.4122000000
S	  29.8181000000	  56.0234000000	  30.6620000000
O	  29.7240000000	  54.9990000000	  31.6907000000
O	  30.1001000000	  55.6431000000	  29.2589000000
C	  28.1309000000	  56.5857000000	  30.3983000000
F	  28.0050000000	  57.7562000000	  29.8191000000
F	  27.4746000000	  55.8194000000	  29.6509000000
F	  27.5371000000	  56.5331000000	  31.6166000000
N	  28.2376000000	  50.2427000000	  32.9229000000
S	  27.9440000000	  51.8071000000	  33.0478000000
O	  26.9275000000	  52.1598000000	  34.0202000000
O	  29.1007000000	  52.6695000000	  32.9914000000
C	  27.1108000000	  52.1905000000	  31.4633000000
F	  27.9684000000	  52.0057000000	  30.4906000000
F	  26.7537000000	  53.4762000000	  31.4182000000
F	  26.0865000000	  51.4101000000	  31.2725000000
S	  29.5835000000	  49.4206000000	  32.9566000000
O	  29.4991000000	  48.3849000000	  33.9879000000
O	  30.8084000000	  50.1400000000	  32.8067000000
C	  29.4295000000	  48.4209000000	  31.4636000000
F	  29.6233000000	  49.1791000000	  30.3519000000
F	  30.3731000000	  47.5104000000	  31.4373000000
F	  28.3002000000	  47.6993000000	  31.3925000000
S	  31.2092000000	  54.1126000000	  35.3010000000
S	  31.1585000000	  56.1043000000	  34.6009000000
S	  29.4848000000	  56.9966000000	  35.3861000000
S	  26.8788000000	  59.7312897089	  38.1129000000
S	  26.9208000000	  59.7894397089	  40.2262000000
S	  25.6117000000	  61.3759597089	  40.8366000000
S	  28.8941000000	  59.9948297089	  37.3859000000
S	  29.7213000000	  58.0557000000	  37.2701000000
