43

Li	   8.6906200000	  12.9314000000	  29.5377000000
O	   7.2790000000	  12.1973000000	  30.3456000000
O	   5.7558000000	  13.4647000000	  31.2605000000
C	   6.1698500000	  12.2100000000	  29.4003000000
C	   5.1494700000	  13.0624000000	  30.1034000000
C	   6.6229600000	  12.4523000000	  31.5445000000
H	   6.4596600000	  12.7420000000	  28.4419000000
H	   5.7623400000	  11.1877000000	  29.3238000000
H	   4.8505600000	  13.9828000000	  29.4809000000
H	   4.2775600000	  12.4686000000	  30.4063000000
H	   6.1402300000	  11.4927000000	  31.7783000000
H	   7.3584800000	  12.6645000000	  32.3026000000
N	   6.5407000000	  16.8998000000	  29.0324000000
S	   6.8399900000	  17.2845000000	  30.5394000000
O	   5.8718000000	  16.6676000000	  31.4242000000
O	   8.1816700000	  17.3496000000	  31.0719000000
C	   6.4310600000	  19.0638000000	  30.5592000000
F	   6.2163600000	  19.4760000000	  31.8110000000
F	   5.2562500000	  19.3836000000	  29.9268000000
F	   7.3904400000	  19.8340000000	  30.0708000000
S	   7.3861400000	  15.7898000000	  28.3319000000
O	   6.6986900000	  15.2373000000	  27.1808000000
O	   8.0152800000	  14.9066000000	  29.2928000000
C	   8.8966400000	  16.6116000000	  27.6335000000
F	   9.7309700000	  15.7364000000	  27.1122000000
F	   8.6291400000	  17.3936000000	  26.6086000000
F	   9.5861800000	  17.2185000000	  28.4717000000
S	  14.2966000000	   8.0652000000	  36.0457000000
S	  13.4124000000	   7.0468400000	  34.4175000000
S	  13.7326000000	   7.9628400000	  32.4833000000
S	  11.1595000000	   9.4842100000	  28.4480000000
S	   9.2786600000	  10.2736000000	  28.0649000000
S	   9.2741800000	  12.3219000000	  27.6790000000
S	  11.1550000000	   8.3462800000	  30.1793000000
S	  12.1863000000	   9.1868600000	  31.8201000000
S	  17.0652000000	  16.1547000000	  37.2418000000
S	  16.7424000000	  15.3649000000	  35.3523000000
S	  14.8883000000	  14.4298000000	  34.9871000000
S	  11.1596000000	  15.9494000000	  31.6280000000
S	  11.0033000000	  14.4340000000	  30.1338000000
S	  10.3656000000	  12.6103000000	  31.0308000000
S	  13.1601000000	  16.0200000000	  32.3396000000
S	  13.4349000000	  15.8739000000	  34.4624000000
