57

Li	  55.9348000000	   5.8564400000	  57.0851000000
O	  57.5464000000	   5.1137500000	  55.8720000000
O	  59.8170853005	   4.8199700000	  55.3780000000
C	  57.6693000000	   4.3028800000	  54.6345000000
C	  59.0396053005	   3.6838400000	  54.8159000000
C	  58.8549000000	   5.6198500000	  56.0107000000
H	  56.8965000000	   3.5202500000	  54.5963000000
H	  57.5927000000	   4.9359700000	  53.7776000000
H	  59.0297023005	   2.8426000000	  55.5329000000
H	  59.5024653005	   3.3276000000	  53.8687000000
H	  58.8051000000	   6.6286300000	  55.5595000000
H	  59.1403753005	   5.6691100000	  57.0420000000
N	  52.5176000000	   4.7015400000	  57.2169000000
S	  52.7213000000	   6.0741200000	  57.9814000000
O	  54.1445000000	   6.3953000000	  58.1510000000
O	  51.8436000000	   7.0722900000	  57.4698000000
C	  52.2016000000	   5.6920400000	  59.6994504055
F	  52.5223000000	   6.6314500000	  60.5505104055
F	  52.8375000000	   4.5796200000	  60.1582104055
F	  50.8677000000	   5.5288400000	  59.7913804055
S	  53.3475000000	   4.2112200000	  55.9725000000
O	  54.6939000000	   4.8093300000	  55.9157000000
O	  52.5983000000	   4.0802900000	  54.7587000000
C	  53.6684000000	   2.4352400000	  56.4487000000
F	  53.4262000000	   2.2514200000	  57.7673000000
F	  52.9430000000	   1.5700000000	  55.8055000000
F	  54.9182000000	   2.0598200000	  56.1633000000
N	  54.7233000000	   9.5061600000	  56.7791000000
S	  53.4438000000	  10.3162000000	  56.8025000000
O	  53.6032000000	  11.7450000000	  56.5678000000
O	  52.2207000000	   9.7188000000	  56.2597000000
C	  53.0162000000	  10.2161000000	  58.5606000000
F	  53.9421000000	  10.8166000000	  59.2924404055
F	  52.8116000000	   9.0093700000	  59.0811000000
F	  51.9234000000	  10.9619000000	  58.7986000000
S	  55.4304000000	   8.8472600000	  55.5453000000
O	  54.8644000000	   9.3131100000	  54.2237000000
O	  55.7099000000	   7.4687800000	  55.7052000000
C	  57.0959000000	   9.6314400000	  55.6719000000
F	  57.7392000000	   9.6782300000	  54.5599000000
F	  57.0477000000	  10.8523000000	  56.0880000000
F	  57.9160000000	   9.0675700000	  56.6059000000
N	  57.3642000000	   5.7390800000	  60.2583904055
S	  57.6334000000	   7.0713600000	  59.4468504055
O	  59.0009483005	   7.5038900000	  59.5287504055
O	  57.0758000000	   6.9463000000	  58.1150000000
C	  56.6326000000	   8.2293600000	  60.4148004055
F	  55.3642000000	   7.7555700000	  60.7202904055
F	  56.5576000000	   9.3361400000	  59.7532004055
F	  57.1673000000	   8.5551500000	  61.6093404055
S	  56.6008000000	   4.4269500000	  59.7729604055
O	  56.1848000000	   4.4396500000	  58.4086000000
O	  55.7663000000	   3.8909700000	  60.8118604055
C	  57.9521000000	   3.2049000000	  59.6619004055
F	  58.5958000000	   2.7912000000	  60.7904104055
F	  57.5500000000	   2.1327000000	  58.9844000000
F	  58.8855000000	   3.7051300000	  58.8508000000
