34

Li	  31.6374000000	   6.6730300000	   6.2333300000
O	  28.6128000000	   8.5238100000	   4.2440600000
O	  30.1027000000	   7.0493100000	   5.1512700000
C	  28.5313000000	   7.3803300000	   3.4263800000
C	  29.7972000000	   6.6027200000	   3.8298800000
C	  28.9989000000	   7.9010800000	   5.4906300000
H	  27.5811000000	   6.8696300000	   3.5979800000
H	  28.4094000000	   7.7656700000	   2.3977900000
H	  29.6213000000	   5.5169400000	   3.7701600000
H	  30.5944000000	   6.8630900000	   3.1855800000
H	  29.2627000000	   8.6634000000	   6.1852800000
H	  28.0295000000	   7.4574900000	   5.8660800000
O	  33.6747000000	   9.7456900000	   7.5827500000
O	  32.3731000000	   7.9508800000	   7.3496400000
C	  33.6666000000	   9.0076100000	   8.7908100000
C	  33.1890000000	   7.6656100000	   8.4097900000
C	  32.8928000000	   9.0839200000	   6.6986800000
H	  34.5992000000	   8.8892400000	   9.3212400000
H	  32.8906000000	   9.4992900000	   9.3313100000
H	  33.9723000000	   7.0310900000	   8.0445900000
H	  32.7033000000	   7.3249900000	   9.3297500000
H	  32.0371000000	   9.7376300000	   6.4886400000
H	  33.4698000000	   8.9514300000	   5.8160200000
O	  32.1768000000	   5.0493400000	   5.7989800000
O	  33.9427000000	   3.9850600000	   4.8788300000
C	  31.7397000000	   3.6579100000	   5.6680900000
C	  33.0131000000	   2.9320200000	   5.2317300000
C	  33.5570000000	   4.9379000000	   5.7191000000
H	  31.4160000000	   3.1364500000	   6.5804200000
H	  30.9365000000	   3.6815600000	   4.9526300000
H	  33.3788000000	   2.2654800000	   5.9831000000
H	  32.7606000000	   2.3288300000	   4.3273500000
H	  34.0072000000	   5.8177400000	   5.4126600000
H	  33.9822000000	   4.5369800000	   6.7100500000
