31

Li	  18.9968000000	  37.3915000000	   3.5191700000
O	  17.5846000000	  34.4166000000	   2.1354600000
O	  18.4202000000	  36.3851000000	   1.9586300000
C	  19.0821000000	  34.2337000000	   2.0174200000
C	  19.4911000000	  35.6134000000	   1.4780900000
C	  17.2515000000	  35.7281000000	   1.8333800000
H	  19.3643000000	  34.0573000000	   3.0398400000
H	  19.3828000000	  33.4279000000	   1.3790000000
H	  20.4589000000	  35.8209000000	   2.0071100000
H	  19.7519000000	  35.7185000000	   0.4163895945
H	  16.9756000000	  35.7378000000	   0.8576895945
H	  16.5485000000	  36.0365000000	   2.5660800000
O	  17.1123000000	  34.6025000000	   6.4231900000
O	  17.9500000000	  36.0456000000	   4.8573600000
C	  17.0413000000	  35.9349000000	   7.0147100000
C	  17.5367000000	  36.8392000000	   5.8533900000
C	  18.0938000000	  34.7549000000	   5.4147800000
H	  16.0441000000	  36.1521000000	   7.2593600000
H	  17.5962000000	  35.9805000000	   7.9814900000
H	  16.6827000000	  37.4415000000	   5.6136000000
H	  18.4366000000	  37.3834000000	   6.1694300000
H	  19.0630000000	  34.8278000000	   5.8551800000
H	  17.9957000000	  33.9473000000	   4.6577200000
S	  17.5708000000	  44.6021000000	  -1.8035104055
S	  18.3782000000	  42.7765000000	  -1.1758104055
S	  20.4884000000	  42.8596000000	  -1.0920104055
S	  20.2146000000	  39.3016000000	   1.8242400000
S	  20.5097000000	  38.8459000000	   3.8386300000
S	  20.9360000000	  36.8984000000	   4.4567300000
S	  21.7780000000	  40.5250000000	   1.1785600000
S	  21.2363000000	  42.5486000000	   0.8824895945
