43

Li	  27.5089000000	  41.0112000000	  34.1121000000
O	  26.2830000000	  42.5330000000	  34.0071000000
O	  24.7920000000	  43.7333000000	  35.3193000000
C	  26.7814000000	  43.8261000000	  34.2178000000
C	  25.7069000000	  44.6656000000	  34.8694000000
C	  24.9725000000	  42.6138000000	  34.5198000000
H	  27.6229000000	  43.6329000000	  34.9024000000
H	  27.1957000000	  44.2851000000	  33.3078000000
H	  26.0400000000	  45.0605000000	  35.8500000000
H	  25.2008000000	  45.4481000000	  34.2227000000
H	  24.3478000000	  42.6657000000	  33.6510000000
H	  24.6425000000	  41.7229000000	  35.0225000000
N	  29.6669000000	  42.1250000000	  30.9868000000
S	  28.8230000000	  41.7613000000	  29.6856000000
O	  29.5534000000	  41.8838000000	  28.4397000000
O	  27.9426000000	  40.6146000000	  29.8674000000
C	  27.6898000000	  43.1604000000	  29.6729000000
F	  26.7897000000	  42.9420000000	  28.6814000000
F	  28.1929000000	  44.3165000000	  29.4622000000
F	  26.9673000000	  43.1299000000	  30.7700000000
S	  29.9382000000	  41.2519000000	  32.2224000000
O	  30.0966000000	  39.8621000000	  31.8521000000
O	  29.1280000000	  41.5121000000	  33.4000000000
C	  31.5844000000	  41.8776000000	  32.7319000000
F	  31.9589000000	  41.3530000000	  33.8271000000
F	  32.5599000000	  41.6445000000	  31.8480000000
F	  31.5470000000	  43.1884000000	  32.8896000000
S	  33.1786000000	  34.1659000000	  38.4850000000
S	  32.0316000000	  35.9269000000	  38.1978000000
S	  32.6173000000	  37.5333000000	  39.3933000000
S	  30.4962000000	  40.6140000000	  36.4198000000
S	  28.6189000000	  41.5168000000	  36.4786000000
S	  27.1123000000	  40.1316000000	  36.1216000000
S	  31.5884000000	  40.7193000000	  38.1939000000
S	  33.1487000000	  39.3084000000	  38.3085000000
S	  26.3557000000	  39.8448000000	  32.5898000000
S	  26.1880000000	  37.8577000000	  33.3634000000
S	  27.9424000000	  36.9877000000	  34.2925000000
S	  30.5012000000	  33.0233000000	  34.9053000000
S	  30.9573000000	  30.9423000000	  34.7150000000
S	  29.7459000000	  29.5619000000	  35.7874000000
S	  29.1576000000	  33.8273000000	  33.4482000000
S	  27.7477000000	  34.9549000000	  34.4721000000
