42

Li	  57.0063000000	  31.7664000000	  36.7040000000
O	  58.6527000000	  28.4258000000	  38.1264000000
O	  57.5645000000	  30.3870000000	  37.7880000000
C	  59.2670253005	  29.4834000000	  38.9053000000
C	  58.1842000000	  30.5406000000	  39.0779000000
C	  57.5694000000	  29.0011000000	  37.5130000000
H	  59.6565453005	  29.1310000000	  39.8598000000
H	  60.0084753005	  29.9973000000	  38.3406000000
H	  57.4429000000	  30.2054000000	  39.8506000000
H	  58.4534000000	  31.5353000000	  39.3432000000
H	  57.6573000000	  28.8222000000	  36.4464000000
H	  56.6350000000	  28.5511000000	  37.8684000000
N	  54.3718000000	  31.3778000000	  34.3444000000
S	  55.8148000000	  31.5723000000	  33.8464000000
O	  56.8531000000	  31.5161000000	  34.8050000000
O	  56.0265000000	  30.9848000000	  32.5173000000
C	  55.9165000000	  33.3830000000	  33.6747000000
F	  57.1858000000	  33.7254000000	  33.3786000000
F	  55.5562000000	  33.9845000000	  34.7438000000
F	  55.0684000000	  33.8153000000	  32.7911000000
S	  53.8939000000	  31.2426000000	  35.7818000000
O	  52.5611000000	  31.7799000000	  35.8682000000
O	  54.8388000000	  31.6761000000	  36.7896000000
C	  53.7537000000	  29.5005000000	  36.0805000000
F	  53.8295000000	  29.2806000000	  37.3584000000
F	  52.6439000000	  28.9651000000	  35.5032000000
F	  54.7645000000	  28.8339000000	  35.6603000000
N	  59.5814353005	  34.4541000000	  36.8863000000
S	  58.1338000000	  34.8116000000	  37.3574000000
O	  57.6072000000	  36.1278000000	  36.8993000000
O	  57.2321000000	  33.6906000000	  37.3918000000
C	  58.6300000000	  35.0700000000	  39.0525000000
F	  59.6965853005	  35.8485000000	  39.1261000000
F	  58.8829000000	  33.9616000000	  39.7221000000
F	  57.6145000000	  35.6295000000	  39.5771000000
S	  60.1172653005	  33.1071000000	  36.3016000000
O	  60.8375253005	  33.3699000000	  35.1087000000
O	  59.1014053005	  32.0310000000	  36.2584000000
C	  61.3825453005	  32.6182000000	  37.5449000000
F	  62.1130353005	  31.5170000000	  37.2330000000
F	  62.1870253005	  33.5911000000	  37.8607000000
F	  60.7673053005	  32.3082000000	  38.7109000000
