35

Li	  24.7777000000	  12.0955000000	  37.7412000000
O	  28.6139000000	  10.5678000000	  36.8669000000
O	  26.6094000000	  11.6717000000	  37.5011000000
C	  28.3181000000	  10.1528000000	  38.2379000000
C	  26.9339000000	  10.7114000000	  38.4998000000
C	  27.7465000000	  11.6519000000	  36.6383000000
H	  28.3239000000	   9.0849300000	  38.4025000000
H	  29.1171000000	  10.4847000000	  38.8228000000
H	  26.1831000000	   9.9103100000	  38.5015000000
H	  26.9406000000	  11.2441000000	  39.4125000000
H	  28.2710000000	  12.5619000000	  36.7846000000
H	  27.2437000000	  11.6580000000	  35.6778000000
N	  21.3219000000	  10.0074000000	  37.2119000000
S	  20.2222000000	   9.9377400000	  36.0405000000
O	  19.7410000000	  11.2585000000	  35.6765000000
O	  20.4675000000	   8.9833600000	  34.9737000000
C	  18.7343000000	   9.1700000000	  36.8737000000
F	  18.2144000000	   9.9652900000	  37.8635000000
F	  19.0638000000	   8.0018500000	  37.3502000000
F	  17.7636000000	   8.9330600000	  36.0083000000
S	  22.8124000000	   9.5309700000	  37.1275000000
O	  23.6905000000	  10.6803000000	  37.0981000000
O	  23.0551000000	   8.4998900000	  36.2354000000
C	  23.0423000000	   8.7495500000	  38.7873000000
F	  24.1158000000	   7.9686700000	  38.7523000000
F	  23.2239000000	   9.6747800000	  39.7265000000
F	  22.0625000000	   7.9181100000	  39.2295000000
S	  24.2121000000	  12.7478000000	  39.5643000000
S	  24.1152000000	  14.3001000000	  38.1970000000
S	  25.4489000000	  14.2591000000	  36.5797000000
S	  30.2714000000	  14.5417000000	  36.6487000000
S	  31.5628000000	  16.0962000000	  35.9560000000
S	  32.9906000000	  16.3550000000	  37.5430000000
S	  28.5704000000	  15.1803000000	  37.7315000000
S	  26.8717000000	  15.7532000000	  36.5375000000
