46

Li	  31.2185000000	  33.3793000000	  23.7385000000
N	  29.7339000000	  36.8127000000	  21.9848000000
S	  29.7180000000	  36.0651000000	  23.3218000000
O	  28.3893000000	  35.8749000000	  23.8903000000
O	  30.6777000000	  35.0229000000	  23.3511000000
C	  30.4769000000	  37.3120000000	  24.4227000000
F	  29.7029000000	  38.3596000000	  24.4262000000
F	  31.6689000000	  37.7356000000	  23.9445000000
F	  30.6484000000	  36.8341000000	  25.6636000000
S	  28.4569000000	  37.1835000000	  21.1673000000
O	  28.3614000000	  38.5882000000	  20.9114000000
O	  27.2891000000	  36.3757000000	  21.3650000000
C	  29.0170000000	  36.5622000000	  19.5056000000
F	  29.4653000000	  35.2756000000	  19.4981000000
F	  28.0165000000	  36.6011000000	  18.6335000000
F	  30.0198000000	  37.2457000000	  19.0164000000
N	  27.3248000000	  31.7695000000	  22.9810000000
S	  27.1576000000	  32.8133000000	  21.7643000000
O	  25.8016000000	  33.3593000000	  21.7945000000
O	  28.2117000000	  33.7938000000	  21.5691000000
C	  27.1788000000	  31.7426000000	  20.3309000000
F	  26.1990000000	  30.8795000000	  20.4256000000
F	  28.2490000000	  30.9984000000	  20.1729000000
F	  26.9811000000	  32.4408000000	  19.2803000000
S	  28.4075000000	  31.6946000000	  24.1076000000
O	  27.9636000000	  31.8778000000	  25.4552000000
O	  29.6374000000	  32.4029000000	  23.8168000000
C	  28.8147000000	  29.9012000000	  24.0997000000
F	  29.2124000000	  29.5199000000	  22.8753000000
F	  29.7784000000	  29.6604000000	  24.9814000000
F	  27.8081000000	  29.1172000000	  24.5595000000
N	  34.2265000000	  35.2327000000	  21.5107000000
S	  34.9123000000	  35.5792000000	  20.1970000000
O	  36.3186000000	  35.6899000000	  20.2839000000
O	  34.3822000000	  34.7881000000	  19.1357000000
C	  34.5176000000	  37.3695000000	  19.8603000000
F	  33.2187000000	  37.7114000000	  20.0772000000
F	  34.7724000000	  37.6458000000	  18.5963000000
F	  35.2341000000	  38.1905000000	  20.6295000000
S	  34.2240000000	  34.0259000000	  22.4813000000
O	  35.0629000000	  32.8915000000	  22.0930000000
O	  32.9412000000	  33.7407000000	  23.1307000000
C	  35.0947000000	  34.7863000000	  23.8995000000
F	  35.4771000000	  33.9325000000	  24.8013000000
F	  36.2270000000	  35.3313000000	  23.5132000000
F	  34.4345000000	  35.7475000000	  24.5196000000
