35

Li	  56.3701000000	  37.2691000000	  25.1222000000
O	  57.5980000000	  34.9692000000	  27.8496000000
O	  57.0699000000	  35.6748000000	  25.8315000000
C	  58.8380000000	  35.1083000000	  27.2183000000
C	  58.4679000000	  35.5921000000	  25.8036000000
C	  56.7112000000	  34.7416000000	  26.7973000000
H	  59.4641153005	  35.8862000000	  27.6936000000
H	  59.3702153005	  34.1678000000	  27.2324000000
H	  58.9014000000	  36.5445000000	  25.5898000000
H	  58.8068000000	  34.8238000000	  25.0931000000
H	  56.7674000000	  33.6790000000	  26.6796000000
H	  55.6459000000	  35.0282000000	  27.1284000000
N	  58.9825000000	  39.9398000000	  22.5139000000
S	  58.2911000000	  38.5783000000	  22.6014000000
O	  59.0816953005	  37.3911000000	  22.4369000000
O	  57.3095000000	  38.5216000000	  23.6346000000
C	  57.2030000000	  38.4979000000	  21.1381000000
F	  57.8891000000	  38.6367000000	  19.9902000000
F	  56.3524000000	  39.4852000000	  21.0598000000
F	  56.4688000000	  37.4224000000	  21.1662000000
S	  60.4354053005	  40.3531000000	  22.3411000000
O	  60.7301053005	  40.8753000000	  21.0437000000
O	  61.4052453005	  39.4699000000	  22.9721000000
C	  60.5280753005	  41.8153000000	  23.4369000000
F	  59.7043253005	  42.7655000000	  22.9921000000
F	  60.0458453005	  41.4381000000	  24.6531000000
F	  61.7644953005	  42.3284000000	  23.5644000000
S	  64.1415953005	  39.8154000000	  25.1186000000
S	  62.5876353005	  40.1306000000	  26.6382000000
S	  61.2503953005	  38.4560000000	  27.1537000000
S	  56.1312000000	  38.7972000000	  26.8491000000
S	  54.6583000000	  38.6551000000	  25.2116000000
S	  54.6503000000	  36.7228000000	  24.2583000000
S	  57.9697000000	  39.8205000000	  26.6333000000
S	  59.4315353005	  39.1490000000	  28.0563000000
