31

Li	  24.0369000000	   1.4642800000	  23.0315000000
O	  25.5739000000	   0.4818302911	  22.4404000000
O	  26.2345000000	  -1.0935697089	  21.0686000000
C	  26.1045000000	   1.1191800000	  21.2476000000
C	  26.8635000000	   0.0215302911	  20.5068000000
C	  26.0257000000	  -0.8143697089	  22.4014000000
H	  25.2314000000	   1.5427300000	  20.7604000000
H	  26.7945000000	   1.9658700000	  21.5490000000
H	  26.7812000000	  -0.0038697089	  19.4642000000
H	  27.9116000000	   0.0296302911	  20.7969000000
H	  26.9561000000	  -0.9943697089	  22.8696000000
H	  25.3377000000	  -1.5840697089	  22.7966000000
O	  24.8603000000	   3.1862700000	  23.1937000000
O	  25.3600000000	   5.0852400000	  24.3092000000
C	  23.9104000000	   4.2077200000	  22.8037000000
C	  23.9580000000	   5.1280900000	  23.9711000000
C	  25.8732000000	   4.0003800000	  23.6037000000
H	  24.3129000000	   4.7156600000	  21.9211000000
H	  22.9369000000	   3.8894200000	  22.6363000000
H	  23.6930000000	   6.1255200000	  23.6879000000
H	  23.3167000000	   4.7339600000	  24.7583000000
H	  26.4718000000	   3.3176800000	  24.2546000000
H	  26.5516000000	   4.2419400000	  22.8117000000
S	  22.3480000000	   1.2417100000	  21.7106000000
S	  22.2462000000	   0.2857302911	  23.6585000000
S	  23.0062000000	   1.5474200000	  25.1136000000
S	  26.9228000000	   2.4712900000	  28.3872000000
S	  27.5757000000	   4.4024000000	  29.1945000000
S	  29.2962000000	   4.3168600000	  30.2756000000
S	  25.9666000000	   2.6202000000	  26.5997000000
S	  24.8778000000	   0.9736302911	  25.8391000000
