20

Li	  15.5872000000	  43.3227000000	  14.1480000000
O	  16.1282000000	  44.5959000000	  12.4977000000
O	  15.5206000000	  45.6287000000	  10.5614000000
C	  17.1399000000	  44.3234000000	  11.5631000000
C	  16.7612000000	  45.0686000000	  10.2599000000
C	  15.4800000000	  45.7036000000	  11.9712000000
H	  18.1048000000	  44.5676000000	  11.8846000000
H	  17.1966000000	  43.2618000000	  11.3379000000
H	  17.5100000000	  45.8136000000	   9.9927500000
H	  16.7249000000	  44.3528000000	   9.4841600000
H	  14.4644000000	  45.6636000000	  12.3377000000
H	  16.0830000000	  46.5962000000	  12.2929000000
S	  13.6265000000	  42.3074000000	  14.1015000000
S	  14.0219000000	  43.4085000000	  15.8197000000
S	  13.9450000000	  45.4594000000	  15.4777000000
S	  18.6035000000	  44.6706000000	  15.6859000000
S	  18.1618000000	  43.0092000000	  14.3928000000
S	  16.7897000000	  41.6002000000	  15.0033000000
S	  17.3779000000	  46.3630000000	  15.2498000000
S	  15.5855000000	  46.4346000000	  16.3096000000
