20

Li	  14.6784000000	  40.4055000000	  11.3896000000
O	  14.4062000000	  41.5643000000	  10.0162000000
O	  14.1319000000	  43.5060000000	   8.9153700000
C	  13.3859000000	  41.2967000000	   9.0611500000
C	  13.6107000000	  42.4514000000	   8.0842600000
C	  14.9916000000	  42.8042000000	   9.6843700000
H	  13.3719000000	  40.2681000000	   8.7127300000
H	  12.3878000000	  41.3714000000	   9.5755500000
H	  14.3364000000	  42.1307000000	   7.3339000000
H	  12.7284000000	  42.6973000000	   7.4930500000
H	  15.2824000000	  43.3536000000	  10.6010000000
H	  15.9341000000	  42.5785000000	   9.2103300000
S	  12.7302000000	  39.9976000000	  12.1281000000
S	  13.9515000000	  40.5226000000	  13.7330000000
S	  14.9234000000	  42.3844000000	  13.3599000000
S	  18.7016000000	  40.0780000000	  11.0501000000
S	  17.2768000000	  38.8775000000	  10.1549000000
S	  15.6749000000	  38.2224000000	  11.2772000000
S	  17.9956000000	  42.0246000000	  11.3907000000
S	  17.0525000000	  42.2208000000	  13.2498000000
