57

Li	  30.7290000000	  35.2008000000	  19.6999000000
O	  29.5230000000	  33.7443000000	  20.3750000000
O	  28.7144000000	  32.0609000000	  19.2871000000
C	  29.8168000000	  32.6377000000	  21.2183000000
C	  29.3952000000	  31.4503000000	  20.3478000000
C	  28.3510000000	  33.3052000000	  19.7596000000
H	  30.9268000000	  32.5483000000	  21.3426000000
H	  29.2801000000	  32.7634000000	  22.1148000000
H	  30.1273000000	  30.7628000000	  19.9320000000
H	  28.6448000000	  30.9723000000	  20.9853000000
H	  27.5435000000	  33.2311000000	  20.4745000000
H	  28.0253000000	  34.0109000000	  18.9660000000
N	  28.2464000000	  37.0331000000	  16.9782000000
S	  28.0615000000	  36.0196000000	  15.7886000000
O	  28.9434000000	  34.9150000000	  15.7678000000
O	  26.7324000000	  35.6776000000	  15.5169000000
C	  28.5722000000	  36.9816000000	  14.3128000000
F	  28.3220000000	  36.2570000000	  13.2077000000
F	  29.8838000000	  37.3102000000	  14.3026000000
F	  27.8345000000	  38.0584000000	  14.1443000000
S	  29.5132000000	  37.1550000000	  17.8266000000
O	  30.7062000000	  37.3210000000	  17.0766000000
O	  29.5183000000	  36.3635000000	  19.0276000000
C	  29.2743000000	  38.8907000000	  18.4331000000
F	  29.5471000000	  39.7981000000	  17.4448000000
F	  28.1055000000	  39.1524000000	  18.8020000000
F	  30.1077000000	  39.0774000000	  19.4397000000
N	  31.4740000000	  31.8619000000	  17.6515000000
S	  30.9823000000	  30.8604000000	  16.5615000000
O	  29.5700000000	  30.5750000000	  16.7187000000
O	  31.5228000000	  30.9383000000	  15.2600000000
C	  31.8804000000	  29.4108000000	  17.3479000000
F	  31.5052000000	  29.1934000000	  18.5833000000
F	  33.1449000000	  29.6100000000	  17.2333000000
F	  31.5832000000	  28.3183000000	  16.7664000000
S	  32.1541000000	  33.2571000000	  17.3757000000
O	  31.6905000000	  34.2451000000	  18.2785000000
O	  32.3263000000	  33.6338000000	  16.0143000000
C	  33.9136000000	  32.9625000000	  17.9656000000
F	  34.7445000000	  33.9625000000	  17.7125000000
F	  33.9967000000	  32.7864000000	  19.2847000000
F	  34.5027000000	  31.9032000000	  17.4435000000
N	  33.5896000000	  37.2912000000	  21.6121000000
S	  33.8012000000	  37.7678000000	  20.1778000000
O	  32.9547000000	  37.0454000000	  19.2838000000
O	  34.0145000000	  39.2077000000	  20.0037000000
C	  35.4653000000	  37.0367000000	  19.8936000000
F	  36.4042000000	  37.4172000000	  20.7436000000
F	  35.8652000000	  37.4057000000	  18.6617000000
F	  35.4244000000	  35.7073000000	  19.8999000000
S	  32.5542000000	  36.3521000000	  22.2466000000
O	  31.9199000000	  35.4613000000	  21.3111000000
O	  31.7020000000	  36.9450000000	  23.2496000000
C	  33.6795000000	  35.3107000000	  23.2774000000
F	  34.2098000000	  36.0610000000	  24.2350000000
F	  33.0120000000	  34.3491000000	  23.8541000000
F	  34.7257000000	  34.7931000000	  22.6064000000
