35

Li	  15.5726000000	  29.2670000000	  57.8717000000
O	  19.5859000000	  29.9257000000	  56.9841000000
O	  17.2356000000	  29.9432000000	  57.0714000000
C	  19.1318000000	  28.8243000000	  56.2802000000
C	  17.6643000000	  29.1967000000	  55.9466000000
C	  18.3994000000	  30.3460000000	  57.6647000000
H	  19.6483000000	  28.4307000000	  55.4178000000
H	  18.9999000000	  27.9831000000	  56.9377000000
H	  17.5290000000	  29.6541000000	  55.0087000000
H	  17.0642000000	  28.2495000000	  55.8185000000
H	  18.5003000000	  29.8735000000	  58.7047000000
H	  18.3678000000	  31.4286000000	  57.6623000000
N	  12.4915000000	  29.8840000000	  56.7487000000
S	  12.6736000000	  30.2668000000	  58.2235000000
O	  11.6676000000	  29.6541000000	  59.1001734055
O	  14.0778000000	  30.3986000000	  58.6788000000
C	  12.1553000000	  32.0006000000	  58.0312000000
F	  12.1362000000	  32.6092000000	  59.2638504055
F	  11.0064000000	  32.2128000000	  57.4369000000
F	  13.0542000000	  32.6166000000	  57.2336000000
S	  13.4576000000	  29.2609000000	  55.6783000000
O	  12.8271000000	  28.1576000000	  54.9451000000
O	  14.7956000000	  29.0346000000	  56.2060000000
C	  13.6332000000	  30.5736000000	  54.4070000000
F	  13.7496000000	  30.0355000000	  53.2099000000
F	  12.6968000000	  31.5417000000	  54.4538000000
F	  14.7407000000	  31.2127000000	  54.7284000000
S	  15.3505000000	  27.4179000000	  58.9500000000
S	  17.2443000000	  26.5926000000	  58.5677000000
S	  17.5341000000	  24.6140000000	  59.2620804055
S	  21.2368000000	  22.5236000000	  60.9863804055
S	  21.9695000000	  22.0502000000	  62.9500904055
S	  21.1740000000	  20.3137000000	  63.8871104055
S	  20.4124000000	  24.4869000000	  61.0133704055
S	  18.3187000000	  24.7321000000	  61.1699304055
