28

Li	   8.5716600000	  36.9284000000	   9.5933000000
O	   7.1253500000	  38.1577000000	   9.5499700000
O	   6.0395800000	  39.6262000000	  10.9139000000
C	   5.7759200000	  37.6501000000	   9.6803100000
C	   5.0352100000	  38.6951000000	  10.5987000000
C	   6.9020800000	  39.5044000000	   9.7592400000
H	   5.3851300000	  37.5946000000	   8.6949900000
H	   5.6935200000	  36.6560000000	  10.0801000000
H	   4.1092000000	  39.0970000000	  10.1159000000
H	   4.7552400000	  38.1455000000	  11.5304000000
H	   7.9049000000	  39.9718000000	   9.8776100000
H	   6.4332600000	  39.9830000000	   8.8795100000
S	   8.8168800000	  36.4051000000	  11.6804000000
S	   7.4492700000	  34.9784000000	  12.1916000000
S	   8.3873400000	  33.4556000000	  13.2827000000
S	   9.6851200000	  31.7714000000	   9.1154100000
S	   9.8907300000	  33.7984000000	   8.5240600000
S	   8.0926800000	  34.9257000000	   8.6198500000
S	  10.0460000000	  31.4032000000	  11.0851000000
S	   8.2413300000	  31.7392000000	  12.0992000000
S	  10.6105000000	  37.4916000000	   8.7362200000
S	  10.7513000000	  39.3167000000	   9.7368400000
S	  11.8511000000	  40.8330000000	   8.7682200000
S	  16.1473000000	  39.3227000000	  10.3544000000
S	  15.7649000000	  37.4792000000	   9.4140100000
S	  13.7775000000	  36.7050000000	   9.8871800000
S	  15.3356000000	  40.9346000000	   9.1953400000
S	  13.4190000000	  41.4083000000	  10.0179000000
