39

Li	  57.7779000000	  20.2455000000	  28.7609000000
N	  56.1991000000	  23.2128000000	  29.1526000000
S	  56.2814000000	  22.7462000000	  27.6637000000
O	  56.7626000000	  23.7132000000	  26.7111000000
O	  56.6937000000	  21.3480000000	  27.5395000000
C	  54.5156000000	  22.8200000000	  27.2728000000
F	  53.8561000000	  21.8661000000	  27.8986000000
F	  54.3080000000	  22.6917000000	  25.9622000000
F	  53.9745000000	  23.9845000000	  27.6224000000
S	  56.7988000000	  22.4801000000	  30.4319000000
O	  57.8741000000	  23.1474000000	  31.0776000000
O	  56.9293000000	  21.0604000000	  30.2674000000
C	  55.4016000000	  22.5193000000	  31.6233000000
F	  54.3232000000	  22.0278000000	  31.1317000000
F	  55.6769000000	  21.8306000000	  32.7543000000
F	  55.1593000000	  23.8220000000	  32.0184000000
N	  59.7786253005	  23.7228000000	  27.2642000000
S	  60.2646453005	  22.5646000000	  28.1760000000
O	  60.8478753005	  23.0433000000	  29.3879000000
O	  59.3560953005	  21.4706000000	  28.2355000000
C	  61.5685853005	  21.9062000000	  27.0889000000
F	  62.3146153005	  22.8667000000	  26.5214000000
F	  61.0223253005	  21.2847000000	  26.1045000000
F	  62.3454253005	  21.0198000000	  27.6778000000
S	  59.3496253005	  25.1667000000	  27.7056000000
O	  58.9114000000	  25.2906000000	  29.0909000000
O	  58.6999000000	  25.9301000000	  26.6446000000
C	  60.9960553005	  26.0917000000	  27.6715000000
F	  60.9620853005	  27.3026000000	  28.2562000000
F	  61.8874553005	  25.4149000000	  28.3336000000
F	  61.4153153005	  26.2060000000	  26.4495000000
S	  55.3109000000	  14.8559000000	  21.3337000000
S	  56.9414000000	  13.6275000000	  20.9910000000
S	  57.7078000000	  12.8314000000	  22.7598000000
S	  58.0146000000	  15.8611000000	  26.1824000000
S	  59.0193423005	  17.7299000000	  26.7055000000
S	  58.9905000000	  18.3409000000	  28.7698000000
S	  59.3380853005	  14.2785000000	  25.5088000000
S	  59.2172953005	  14.0887000000	  23.4149000000
