31

Li	  41.7859000000	  54.0432000000	  29.6835000000
O	  44.8810000000	  51.4617000000	  30.3325000000
O	  42.9225000000	  52.5416000000	  30.1395000000
C	  43.8903000000	  50.4257000000	  30.2201000000
C	  42.6442000000	  51.1828000000	  30.4691000000
C	  44.2538000000	  52.6294000000	  30.4977000000
H	  43.9465000000	  49.8658000000	  29.2743000000
H	  44.0740000000	  49.8931000000	  31.0936000000
H	  41.8600000000	  50.8732000000	  29.8315000000
H	  42.2964000000	  51.1118000000	  31.4820000000
H	  44.3314000000	  52.9737000000	  31.5300000000
H	  44.6188000000	  53.3811000000	  29.8167000000
O	  43.1512000000	  57.5908000000	  30.7824000000
O	  42.8865000000	  55.5216000000	  30.0618000000
C	  44.2273000000	  57.3665000000	  29.8851000000
C	  43.6185000000	  56.2974000000	  29.0513000000
C	  42.7859000000	  56.3354000000	  31.2113000000
H	  44.5152000000	  58.2814000000	  29.3171000000
H	  45.0932000000	  56.9373000000	  30.4376000000
H	  43.0017000000	  56.6495000000	  28.3014000000
H	  44.4854000000	  55.8247000000	  28.6114000000
H	  43.3940000000	  55.9499000000	  32.0360000000
H	  41.7548000000	  56.3333000000	  31.3955000000
S	  39.8338000000	  54.7211000000	  29.6766000000
S	  40.4853000000	  54.7969000000	  27.7056000000
S	  41.3241000000	  53.0056000000	  27.1116000000
S	  45.1984000000	  50.7874000000	  24.8766000000
S	  44.4496000000	  49.0181000000	  24.1406000000
S	  45.8743000000	  47.4634000000	  24.5958000000
S	  44.3876000000	  51.3167000000	  26.7766000000
S	  43.4052000000	  53.2227000000	  26.8627000000
