46

Li	  33.9260000000	   3.7681500000	  46.1197000000
O	  36.2411000000	   5.3917100000	  48.6668000000
O	  35.3519000000	   5.2031000000	  46.4776000000
C	  35.4447000000	   7.3574900000	  47.4723000000
C	  35.6540000000	   5.8719100000	  47.4654000000
C	  36.7880000000	   4.1184600000	  48.5756000000
H	  34.5651000000	   7.5345000000	  46.8354000000
H	  35.3981000000	   7.8627300000	  48.4499000000
H	  36.3043000000	   7.5711300000	  46.8037000000
H	  37.4535000000	   3.8434100000	  49.4806000000
H	  35.9846000000	   3.3459400000	  48.4873000000
H	  37.4087000000	   3.9600900000	  47.7166000000
O	  36.3736000000	   0.5813967963	  44.9946000000
O	  35.5632000000	   2.3914600000	  46.2593000000
C	  36.7237000000	   2.9302400000	  44.3409000000
C	  36.0911000000	   1.9128700000	  45.2963000000
C	  35.7423000000	  -0.2255032037	  46.0029000000
H	  37.7025000000	   2.6861100000	  44.0141000000
H	  36.1410000000	   3.1427300000	  43.4682000000
H	  36.7945000000	   3.8447900000	  44.8278000000
H	  35.8220000000	  -1.3536032037	  45.7772000000
H	  36.4076000000	  -0.1755032037	  46.8424000000
H	  34.6902000000	   0.0188967963	  46.2636000000
N	  31.5293000000	   1.4637700000	  47.3695000000
S	  31.8890000000	   2.7038800000	  48.1883000000
O	  32.8813000000	   3.5002200000	  47.5826000000
O	  30.7278000000	   3.3119300000	  48.8213000000
C	  32.8460000000	   1.7566400000	  49.5548000000
F	  33.8968000000	   1.1615200000	  49.0810000000
F	  32.2076000000	   0.7959990000	  50.1646000000
F	  33.2137000000	   2.6407700000	  50.4581000000
S	  30.2239000000	   1.2913200000	  46.4999000000
O	  30.4520000000	   1.5010900000	  45.0894000000
O	  28.9441000000	   1.6651200000	  47.0413000000
C	  30.0659000000	  -0.5118032037	  46.5965000000
F	  28.9383000000	  -0.8654032037	  45.9793000000
F	  31.1172000000	  -1.1846032037	  46.0591000000
F	  29.8960000000	  -0.9835032037	  47.8589000000
S	  25.3441000000	  11.6969000000	  43.2146000000
S	  26.0188000000	   9.7061100000	  43.1176000000
S	  27.6995000000	   9.4815600000	  44.3837000000
S	  31.4526000000	   6.2779800000	  45.6148000000
S	  32.9936000000	   5.3752300000	  44.6443000000
S	  32.8129000000	   3.2906800000	  44.3486000000
S	  30.8291000000	   8.0959100000	  44.6537000000
S	  29.1635000000	   8.0100700000	  43.5861000000
