53

Li	  25.3959000000	  50.9832000000	  44.8205000000
O	  25.9548000000	  53.2325000000	  41.2099000000
O	  25.3670000000	  52.0528000000	  43.2103000000
C	  23.7447000000	  53.4285000000	  42.1116000000
C	  25.1217000000	  52.8566000000	  42.2758000000
C	  27.2679000000	  52.5707000000	  41.2528000000
H	  22.9796000000	  52.7636000000	  42.4349000000
H	  23.6001000000	  54.4044000000	  42.6437000000
H	  23.5616000000	  53.6737000000	  41.0636000000
H	  27.9574000000	  53.2106000000	  41.7165000000
H	  27.4552000000	  51.6969000000	  41.8237000000
H	  27.5090000000	  52.2732000000	  40.2194000000
O	  25.6281000000	  54.2830000000	  46.4013000000
O	  25.2634000000	  52.0456000000	  46.5015000000
C	  23.5017000000	  53.4304000000	  47.2575000000
C	  24.8590000000	  53.1430000000	  46.7362000000
C	  26.9709000000	  54.1784000000	  45.8430000000
H	  23.1407000000	  54.4269000000	  47.0558000000
H	  22.7850000000	  52.7865000000	  46.5955000000
H	  23.3960000000	  53.2090000000	  48.3169000000
H	  27.4192000000	  53.3784000000	  46.3019000000
H	  26.9962000000	  54.0701000000	  44.8066000000
H	  27.6062000000	  55.0174000000	  46.0739000000
N	  28.3299000000	  49.1603000000	  46.3221000000
S	  28.6085000000	  50.1849000000	  45.1966000000
O	  29.3383000000	  49.5281000000	  44.1557000000
O	  27.5270000000	  51.1249000000	  44.9424000000
C	  29.7855000000	  51.2988000000	  46.1226000000
F	  30.2441000000	  52.2980000000	  45.3776000000
F	  30.8018000000	  50.7059000000	  46.5564000000
F	  29.1205000000	  51.8944000000	  47.1389000000
S	  26.9785000000	  48.4419000000	  46.7162000000
O	  26.9226000000	  47.0613000000	  46.4170000000
O	  25.8485000000	  49.2749000000	  46.4151000000
C	  27.0494000000	  48.5526000000	  48.5546000000
F	  27.4772000000	  49.7703000000	  49.0164000000
F	  25.9164000000	  48.2614000000	  49.1849000000
F	  27.9249000000	  47.6508000000	  48.9639000000
N	  23.7763000000	  48.2716000000	  43.2754000000
S	  22.8850000000	  49.4934000000	  43.7274000000
O	  23.4999000000	  50.2031000000	  44.8452000000
O	  22.2892000000	  50.2307000000	  42.5910000000
C	  21.3181000000	  48.7976000000	  44.3893000000
F	  21.4497000000	  48.1076000000	  45.4505000000
F	  20.7065000000	  47.9801000000	  43.5661000000
F	  20.4196000000	  49.7663000000	  44.7197000000
S	  25.3027000000	  48.0639000000	  43.1620000000
O	  25.7200000000	  46.7577000000	  43.5962000000
O	  26.1028000000	  49.2146000000	  43.5383000000
C	  25.5779000000	  48.0074000000	  41.3375000000
F	  26.8399000000	  47.8584000000	  41.0430000000
F	  25.0090000000	  46.9333000000	  40.8561000000
F	  25.1002000000	  49.0858000000	  40.6783000000
