31

Li	  13.5080000000	  33.9394000000	  34.2689000000
O	  17.5462000000	  34.6699000000	  34.4661000000
O	  15.2544000000	  34.5369000000	  34.2598000000
C	  16.4098000000	  35.1459000000	  32.2920000000
C	  16.3492000000	  34.8162000000	  33.8253000000
C	  17.5051000000	  34.2561000000	  35.7714000000
H	  15.9407000000	  36.0385000000	  31.9632000000
H	  17.4708000000	  35.2793000000	  31.9383000000
H	  16.0169000000	  34.2913000000	  31.7945000000
H	  18.4650000000	  34.5764000000	  36.1580000000
H	  16.6976000000	  34.7391000000	  36.3134000000
H	  17.4329000000	  33.1625000000	  35.8603000000
O	  11.2134000000	  35.5990000000	  37.1640000000
O	  12.2587000000	  34.1152000000	  35.6426000000
C	  11.3191000000	  33.2096000000	  37.5553000000
C	  11.7086000000	  34.3682000000	  36.7197000000
C	  11.4168000000	  36.6415000000	  36.2234000000
H	  12.1167000000	  32.4860000000	  37.5768000000
H	  11.1363000000	  33.4219000000	  38.6109000000
H	  10.4405000000	  32.7988000000	  37.0121000000
H	  12.3713000000	  36.6464000000	  35.8750000000
H	  10.7349000000	  36.5270000000	  35.3530000000
H	  11.2303000000	  37.6001000000	  36.6310000000
S	  12.7232000000	  33.0402000000	  32.5091000000
S	  11.7846000000	  34.9741000000	  32.3547000000
S	  13.3083000000	  36.2981000000	  32.8596000000
S	  15.0378000000	  40.9197000000	  32.4920000000
S	  14.5303000000	  42.7633000000	  31.4560000000
S	  12.6703000000	  43.3811000000	  32.0461000000
S	  14.8357000000	  39.1988000000	  31.3556000000
S	  13.1762000000	  38.1828000000	  31.8409000000
