42

Li	  26.5601000000	  57.3038000000	  56.5381000000
O	  26.2565000000	  58.9754000000	  60.1259873951
O	  25.4622000000	  57.9756000000	  58.1431000000
C	  24.2808000000	  59.8059032037	  59.1412000000
C	  25.3427000000	  58.7996000000	  59.0756000000
C	  27.2372000000	  57.9590000000	  60.1604973951
H	  24.0627000000	  60.2255532037	  60.0721373951
H	  24.5842000000	  60.5788432037	  58.4378000000
H	  23.3209000000	  59.3630492037	  58.7317000000
H	  27.8457000000	  58.1115000000	  61.0355673951
H	  26.9077000000	  56.9244000000	  60.2935873951
H	  27.9829000000	  58.0532000000	  59.3316113951
N	  27.2109000000	  53.6431000000	  56.2040000000
S	  27.4828000000	  54.2575000000	  57.6776000000
O	  28.7933000000	  53.7199000000	  58.1664000000
O	  27.0947000000	  55.6591000000	  57.8753000000
C	  26.3279000000	  53.3660000000	  58.7629000000
F	  26.5738000000	  53.5176000000	  60.0546473951
F	  26.4626000000	  52.1331000000	  58.4659000000
F	  25.0794000000	  53.6385000000	  58.5881000000
S	  26.9898000000	  54.4332000000	  54.9442000000
O	  27.7287000000	  54.0071000000	  53.7840000000
O	  26.7366000000	  55.8651000000	  55.0713000000
C	  25.3177000000	  53.8324000000	  54.4847000000
F	  24.8857000000	  54.2009000000	  53.3704000000
F	  25.2269000000	  52.5714000000	  54.5144000000
F	  24.3878000000	  54.2473000000	  55.2922000000
N	  28.7429000000	  59.9067732037	  55.4398000000
S	  29.4225000000	  58.5486000000	  55.7914000000
O	  28.5513000000	  57.6165000000	  56.4675000000
O	  30.2876000000	  58.0489000000	  54.7276000000
C	  30.5925000000	  59.0151000000	  57.0910000000
F	  31.5037000000	  58.0692000000	  57.3350000000
F	  29.9190000000	  59.2712652037	  58.1645000000
F	  31.2252000000	  60.1467432037	  56.8062000000
S	  27.2807000000	  60.2997732037	  55.6812000000
O	  27.0012000000	  61.3870132037	  56.5416000000
O	  26.4038000000	  59.1537000000	  55.7529000000
C	  26.7994000000	  60.9456832037	  54.0256000000
F	  27.2431000000	  62.1864132037	  53.8509000000
F	  27.1395000000	  60.1423932037	  53.0078000000
F	  25.4832000000	  60.9575632037	  54.0414000000
