61

Li	  13.9286000000	  39.6066000000	  15.9831000000
O	  14.0054000000	  40.5139000000	  18.2734000000
O	  13.4287000000	  41.8933000000	  19.9744000000
C	  12.9454000000	  39.8641000000	  18.9563000000
C	  12.4225000000	  40.8734000000	  20.0465000000
C	  13.9699000000	  41.8771000000	  18.7253000000
H	  12.0660000000	  39.5868000000	  18.4100000000
H	  13.3462000000	  38.8885000000	  19.3769000000
H	  11.6027000000	  41.3386000000	  19.6048000000
H	  12.2254000000	  40.5247000000	  21.0608000000
H	  14.9661000000	  42.4087000000	  18.6527000000
H	  13.2881000000	  42.3581000000	  17.9949000000
O	  17.7067000000	  40.7817000000	  17.3519000000
O	  15.7295000000	  40.2155000000	  16.1256000000
C	  16.7564000000	  42.2466000000	  15.6878000000
C	  16.6335000000	  40.9537000000	  16.5033000000
C	  17.5808000000	  39.6492000000	  18.1731000000
H	  16.0478000000	  43.0419000000	  16.0318000000
H	  17.8465000000	  42.4640000000	  15.7240000000
H	  16.4678000000	  42.1498000000	  14.6211000000
H	  16.5997000000	  39.6325000000	  18.6586000000
H	  17.6126000000	  38.7682000000	  17.4936000000
H	  18.3152000000	  39.5988000000	  18.9742000000
N	  13.6532000000	  35.4664000000	  16.6245000000
S	  14.7124000000	  36.5450000000	  17.2397000000
O	  16.0247000000	  36.0080000000	  17.1212000000
O	  14.3561000000	  37.9478000000	  17.1610000000
C	  14.4710000000	  36.1347000000	  19.0097000000
F	  14.5877000000	  34.8629000000	  19.3090000000
F	  13.2878000000	  36.5762000000	  19.4218000000
F	  15.3028000000	  36.7985000000	  19.7119000000
S	  12.2493000000	  35.7514000000	  15.9723000000
O	  12.1803000000	  35.2274000000	  14.6087000000
O	  11.6513000000	  37.1065000000	  16.2962000000
C	  11.0493000000	  34.6352000000	  16.7719000000
F	   9.7985700000	  34.8324000000	  16.3335000000
F	  11.3356000000	  33.3618000000	  16.4979000000
F	  11.0843000000	  34.8049000000	  18.0860000000
N	  13.4230000000	  37.4977000000	  12.0849000000
S	  14.5007000000	  37.5842000000	  13.2320000000
O	  14.1190000000	  38.5291000000	  14.2548000000
O	  15.0279000000	  36.3278000000	  13.6478000000
C	  15.8734000000	  38.4121000000	  12.2625000000
F	  16.4366000000	  37.4709000000	  11.5111000000
F	  16.7478000000	  38.9914000000	  13.0052000000
F	  15.3284000000	  39.2781000000	  11.4599000000
S	  12.1384000000	  38.4114000000	  11.9903000000
O	  12.0391000000	  39.4288000000	  10.9189000000
O	  11.5493000000	  38.6439000000	  13.2417000000
C	  10.9744000000	  37.1651000000	  11.2191000000
F	  11.2495000000	  37.0005000000	   9.9226200000
F	  11.0434000000	  36.0484000000	  11.8864000000
F	   9.6745900000	  37.5218000000	  11.3433000000
S	  10.3766000000	  44.0841000000	   5.5795600000
S	  10.3235000000	  44.4981000000	   7.7249400000
S	  12.2306000000	  44.2740000000	   8.5923000000
S	  13.7792000000	  41.7472000000	  12.6348000000
S	  13.3377000000	  42.0027000000	  14.7064000000
S	  12.1474000000	  40.5376000000	  15.5717000000
S	  13.9105000000	  43.6032000000	  11.4682000000
S	  12.0813000000	  44.4042000000	  10.6783000000
