57

Li	  51.5229000000	  51.3377000000	  15.7908000000
O	  51.9681000000	  47.9463000000	  13.4746000000
O	  51.1994000000	  49.4813000000	  15.0542000000
C	  49.7836000000	  48.9447000000	  13.2339000000
C	  51.0493000000	  48.8174000000	  14.0083000000
C	  53.1087000000	  47.6611000000	  14.3028000000
H	  49.7767000000	  49.9236000000	  12.7567000000
H	  49.7237000000	  48.1821000000	  12.4588000000
H	  48.8487000000	  48.9862000000	  13.8489000000
H	  52.6303000000	  47.1259000000	  15.1308000000
H	  54.0027000000	  47.0925000000	  13.8051000000
H	  53.6488000000	  48.5193000000	  14.6442000000
N	  55.4343000000	  50.7080000000	  16.2994000000
S	  56.7097000000	  50.8521000000	  15.4454000000
O	  56.8630000000	  52.2042000000	  14.9752000000
O	  57.8338000000	  50.1653000000	  15.9779000000
C	  56.2206000000	  49.8837000000	  14.0105000000
F	  54.9111000000	  49.9864000000	  13.7390000000
F	  56.6056000000	  48.5975000000	  14.0722000000
F	  56.7725000000	  50.3439000000	  12.9007000000
S	  54.5380000000	  51.8227000000	  17.0170000000
O	  53.2065000000	  51.8179000000	  16.5325000000
O	  55.1928000000	  53.0538000000	  17.2435000000
C	  54.4000000000	  51.2201000000	  18.6924000000
F	  55.6644000000	  51.1191000000	  19.1653000000
F	  53.8099000000	  52.1129000000	  19.4175000000
F	  53.7685000000	  50.0948000000	  18.6965000000
N	  51.4634000000	  54.0855000000	  13.1839000000
S	  52.8119000000	  53.2154000000	  13.2902000000
O	  53.9637000000	  53.8596000000	  13.7498000000
O	  52.5891000000	  51.8746000000	  13.7702000000
C	  53.1678000000	  52.9198000000	  11.4442000000
F	  53.3137000000	  54.0375000000	  10.7254000000
F	  52.1701000000	  52.2853000000	  10.7772000000
F	  54.2372000000	  52.2161000000	  11.2130000000
S	  50.3970000000	  54.2101000000	  14.3003000000
O	  50.1543000000	  55.5602000000	  14.7742000000
O	  50.5075000000	  53.1802000000	  15.3292000000
C	  48.8730000000	  53.8413000000	  13.4026000000
F	  48.6053000000	  54.7774000000	  12.4848000000
F	  48.9260000000	  52.6770000000	  12.7379000000
F	  47.8539000000	  53.7433000000	  14.2776000000
N	  49.3052000000	  52.8080000000	  18.5393000000
S	  49.5994000000	  51.2809000000	  18.5287000000
O	  48.4581000000	  50.3333000000	  18.6184000000
O	  50.5482000000	  50.9488000000	  17.5062000000
C	  50.4539000000	  51.1008000000	  20.1264000000
F	  51.1362000000	  50.0092000000	  20.2871000000
F	  49.6282000000	  51.3538000000	  21.1334000000
F	  51.3288000000	  52.1057000000	  20.2894000000
S	  48.1641000000	  53.6525000000	  17.8510000000
O	  47.2076000000	  52.8625000000	  17.1724000000
O	  48.6706000000	  54.8828000000	  17.2344000000
C	  47.1680000000	  54.2219000000	  19.3193000000
F	  47.8733000000	  54.9313000000	  20.1909000000
F	  46.1548000000	  54.9921000000	  19.0039000000
F	  46.7680000000	  53.1480000000	  20.0317000000
