28

Li	  22.2373000000	  37.4099000000	  57.6544000000
O	  26.2438000000	  37.2402000000	  58.0315000000
O	  24.0239000000	  37.5438000000	  57.2468000000
C	  25.8347000000	  38.7115000000	  56.0957000000
C	  25.2555000000	  37.7348000000	  57.1116000000
C	  25.8384000000	  36.3120000000	  59.0031000000
H	  25.2601000000	  39.5970000000	  56.2488000000
H	  26.8180000000	  38.9868000000	  56.3223000000
H	  25.6871000000	  38.3730000000	  55.0838000000
H	  25.3054000000	  35.4529000000	  58.5852000000
H	  26.7164000000	  35.9269000000	  59.5429973951
H	  25.1128000000	  36.8811000000	  59.5907073951
S	  21.8515000000	  35.5264000000	  56.4357000000
S	  20.5241000000	  37.1426000000	  56.0808000000
S	  21.6011000000	  38.8287000000	  55.2312000000
S	  21.5809000000	  43.8126000000	  56.4762000000
S	  20.5208000000	  45.3192000000	  55.3850000000
S	  20.6484000000	  47.2485000000	  56.2312000000
S	  20.6159000000	  41.9846000000	  56.1329000000
S	  21.8213000000	  40.3921000000	  56.5971000000
S	  21.7759000000	  37.5836000000	  59.6543673951
S	  23.1379000000	  38.6736000000	  60.7720273951
S	  22.6671000000	  40.6963000000	  60.8710573951
S	  21.2246000000	  39.9740000000	  65.2462973951
S	  20.0098000000	  38.4947000000	  64.4812173951
S	  21.1906000000	  37.0995000000	  63.4117273951
S	  21.3693000000	  41.5398000000	  63.9264873951
S	  23.0411000000	  41.4128000000	  62.7714873951
