20

Li	  18.8458000000	  34.2824000000	   2.1416700000
O	  19.5686000000	  31.5420000000	  -0.3983373951
O	  18.6769000000	  32.5971000000	   1.3394900000
C	  19.7397000000	  30.6775000000	   0.6875626049
C	  19.0465000000	  31.3275000000	   1.8547300000
C	  18.5058000000	  32.2910000000	  -0.0251373951
H	  19.3408000000	  29.6378000000	   0.6229626049
H	  20.7778000000	  30.5468000000	   1.0107900000
H	  18.0960000000	  30.8515000000	   2.0335500000
H	  19.6971000000	  31.4685000000	   2.7439100000
H	  18.3345000000	  33.1987000000	  -0.6135373951
H	  17.6057000000	  31.6947000000	  -0.1362373951
S	  20.5083000000	  35.2106000000	   1.5951000000
S	  19.4536000000	  37.0835000000	   1.6471300000
S	  18.0188000000	  36.9974000000	   0.0670626049
S	  15.5311000000	  34.8434000000	   3.6486200000
S	  17.0622000000	  33.4494000000	   4.0405200000
S	  18.7999000000	  34.5292000000	   4.5697100000
S	  15.4117000000	  35.2023000000	   1.5790800000
S	  16.1180000000	  37.0991000000	   0.8992140000
