39

Li	  24.6485000000	  12.0405000000	  50.1270000000
O	  27.8282000000	   9.2682900000	  49.1742000000
O	  26.0330000000	  10.5994000000	  49.5912000000
C	  27.6149000000	   9.9930900000	  47.9904000000
C	  26.2496000000	  10.6199000000	  48.1980000000
C	  27.0476000000	   9.8272500000	  50.1343000000
H	  28.3472000000	  10.8167000000	  47.9210000000
H	  27.6727000000	   9.2950900000	  47.1833000000
H	  26.1755000000	  11.6384000000	  47.8683000000
H	  25.5288000000	   9.9645700000	  47.7517000000
H	  26.8119000000	   9.0150600000	  50.8106000000
H	  27.6427000000	  10.6399000000	  50.5978000000
O	  24.5337000000	  11.3043000000	  51.8834000000
O	  24.2511000000	  10.5885000000	  53.9491000000
C	  24.0264000000	   9.9998400000	  51.8659000000
C	  24.7241000000	   9.4754100000	  53.1518000000
C	  24.5760000000	  11.7166000000	  53.1981000000
H	  22.9025000000	  10.1828000000	  51.9429000000
H	  24.1743000000	   9.4109500000	  50.9772000000
H	  24.3569000000	   8.5191800000	  53.6173000000
H	  25.8549000000	   9.4788500000	  53.0008000000
H	  25.5401000000	  12.1930000000	  53.3965000000
H	  23.9322000000	  12.6151000000	  53.4076000000
S	  30.6591000000	  23.8790000000	  49.3488000000
S	  29.8793000000	  22.1814000000	  48.3428000000
S	  30.5140000000	  20.3830000000	  49.3381000000
S	  28.9136000000	  15.5706000000	  49.9861000000
S	  27.1539000000	  15.1267000000	  51.1740000000
S	  25.7542000000	  13.9026000000	  50.3560000000
S	  28.6328000000	  17.3727000000	  48.8621000000
S	  28.9139000000	  19.1417000000	  49.9651000000
S	  22.4708000000	  12.0805000000	  49.4936000000
S	  22.4260000000	  12.6768000000	  47.5546000000
S	  22.7058000000	  10.9941000000	  46.3663000000
S	  26.2856000000	  10.5035000000	  42.7535000000
S	  27.9725000000	   9.5708600000	  43.7692000000
S	  28.2176000000	   7.6648200000	  42.8820000000
S	  24.4093000000	  10.0681000000	  43.5810000000
S	  23.9740000000	  11.6626000000	  44.8098000000
