28

Li	  27.2908000000	  25.4554000000	  18.9899000000
O	  24.0651000000	  24.9049000000	  16.5325000000
O	  25.8956000000	  24.7334000000	  18.0242000000
C	  24.6045000000	  22.7852000000	  17.6986000000
C	  24.9443000000	  24.2302000000	  17.4288000000
C	  24.2249000000	  26.2762000000	  16.4569000000
H	  25.2923000000	  22.4239000000	  18.3927000000
H	  23.6006000000	  22.6761000000	  18.0770000000
H	  24.7318000000	  22.2064000000	  16.8006000000
H	  23.4848000000	  26.6592000000	  15.6999000000
H	  24.0097000000	  26.7185000000	  17.3782000000
H	  25.1944000000	  26.5303000000	  16.0393000000
S	  27.4055000000	  27.4928000000	  19.6018000000
S	  25.8420000000	  26.7280000000	  20.9470000000
S	  26.7626000000	  25.6211000000	  22.4540000000
S	  30.1356000000	  28.6934000000	  23.9617000000
S	  30.5900000000	  28.6797000000	  21.7893000000
S	  30.4376000000	  30.6375000000	  21.0754000000
S	  29.3302000000	  26.8568000000	  24.5588000000
S	  27.2107000000	  26.7120000000	  24.2296000000
S	  24.1127000000	  14.4325000000	  21.4157000000
S	  25.7577000000	  15.7836000000	  21.6427000000
S	  25.3447000000	  17.7820000000	  22.2820000000
S	  27.1449000000	  22.5032000000	  20.8855000000
S	  28.3265000000	  22.4903000000	  19.1428000000
S	  29.1270000000	  24.3363000000	  18.4487000000
S	  27.3158000000	  20.6844000000	  21.9239000000
S	  26.0577000000	  19.2425000000	  21.0455000000
