49

Li	   1.3646700000	  37.1554000000	  35.8009000000
O	   0.1039946139	  35.3902000000	  36.8987000000
O	  -0.7292053861	  37.3071000000	  36.2526000000
C	  -0.7112053861	  34.9495000000	  35.8887000000
C	  -1.1876053861	  36.2334000000	  35.3352000000
C	  -0.5010053861	  36.5463000000	  37.3444000000
H	  -0.1899053861	  34.4840000000	  35.0906000000
H	  -1.5866053861	  34.3706000000	  36.1831000000
H	  -0.8692053861	  36.5422000000	  34.3719000000
H	  -2.2637053861	  36.3092000000	  35.2117000000
H	  -1.4503053861	  36.2273000000	  37.8276000000
H	   0.0677946139	  37.0505000000	  38.0399000000
O	   3.4090300000	  37.4219000000	  39.4898000000
O	   2.5671600000	  37.6716000000	  37.2447000000
C	   4.2602700000	  39.1663000000	  38.1105000000
C	   3.3293100000	  37.9757000000	  38.2087000000
C	   2.5711000000	  36.2841000000	  39.7813000000
H	   4.4923100000	  39.6574000000	  39.0645000000
H	   5.2310900000	  38.8640000000	  37.6592000000
H	   3.7550400000	  40.0039000000	  37.5157000000
H	   2.4483600000	  36.1991000000	  40.8849000000
H	   1.6080700000	  36.3926000000	  39.3619000000
H	   3.0965900000	  35.3697000000	  39.5355000000
O	  -0.1205053861	  40.0090000000	  33.3027000000
O	   1.4135700000	  38.6827000000	  34.5490000000
C	   0.5619946139	  40.6825000000	  35.4963000000
C	   0.7100946139	  39.6883000000	  34.3780000000
C	  -0.1206053861	  38.9953000000	  32.2504000000
H	   0.6588946139	  41.6504000000	  35.0348000000
H	  -0.4398053861	  40.7313000000	  35.9641000000
H	   1.2736000000	  40.5330000000	  36.3319000000
H	   0.9596480000	  38.8534000000	  31.9145000000
H	  -0.4931053861	  38.0515000000	  32.5437000000
H	  -0.5434053861	  39.3755000000	  31.3315000000
N	   4.3869500000	  35.3731000000	  34.5247000000
S	   5.3287700000	  34.8980000000	  35.6171000000
O	   6.2555200000	  35.9341000000	  36.1542000000
O	   4.6069400000	  34.2041000000	  36.5797000000
C	   6.2822100000	  33.6552000000	  34.7956000000
F	   7.2604500000	  33.2187000000	  35.5631000000
F	   6.8200700000	  34.0132000000	  33.6930000000
F	   5.5334900000	  32.6436000000	  34.4520000000
S	   2.9157300000	  35.0005000000	  34.2090000000
O	   1.9337300000	  35.8316000000	  34.8299000000
O	   2.5557700000	  33.5997000000	  34.2320000000
C	   2.7041500000	  35.4812000000	  32.4873000000
F	   1.5924200000	  34.9190000000	  32.1293000000
F	   2.4325800000	  36.7772000000	  32.2807000000
F	   3.6740300000	  35.0372000000	  31.6949000000
