60

Li	  48.0591000000	  32.7366000000	  29.6175000000
O	  47.7834000000	  28.4364000000	  31.0602000000
O	  49.3724000000	  28.0055000000	  32.5451000000
C	  48.2119000000	  29.8063000000	  31.5085000000
C	  49.5883000000	  29.3309000000	  32.0698000000
C	  48.0604000000	  27.6525000000	  32.1538000000
H	  48.2538000000	  30.4705000000	  30.7351000000
H	  47.5471000000	  30.0889000000	  32.2895000000
H	  50.3554000000	  29.3680000000	  31.3147000000
H	  49.9344000000	  29.8493000000	  32.9284000000
H	  47.2259000000	  27.9415000000	  32.8001000000
H	  47.8922000000	  26.5820000000	  31.9088000000
O	  44.6623000000	  31.8089000000	  27.7193000000
O	  46.5219000000	  31.5509000000	  29.0694000000
C	  44.2812000000	  30.5955000000	  29.8111000000
C	  45.3172000000	  31.3956000000	  28.8344000000
C	  45.4733000000	  32.1551000000	  26.6433000000
H	  43.3708000000	  31.1555000000	  29.8608000000
H	  43.9674000000	  29.6180000000	  29.5649000000
H	  44.6602000000	  30.3935000000	  30.8011000000
H	  44.8128000000	  32.5318000000	  25.8974000000
H	  46.1286000000	  33.0036000000	  26.7829000000
H	  45.9204000000	  31.3254000000	  26.1973000000
O	  48.6154000000	  34.8677000000	  26.2552000000
O	  48.2693000000	  34.2079000000	  28.4851000000
C	  47.7966000000	  36.4506000000	  27.7064000000
C	  48.2325000000	  35.0058000000	  27.5364000000
C	  49.1366000000	  33.6821000000	  25.8410000000
H	  48.2226000000	  36.7399000000	  28.5993000000
H	  48.0153000000	  37.1005000000	  26.8492000000
H	  46.7067000000	  36.6146000000	  27.8166000000
H	  50.0532000000	  33.4890000000	  26.3874000000
H	  48.3854000000	  32.9489000000	  26.0961000000
H	  49.3478000000	  33.6728000000	  24.7299000000
O	  50.7708000000	  30.5798000000	  27.6352000000
O	  49.6594000000	  31.9644000000	  29.2304000000
C	  52.1283000000	  31.8229000000	  29.1392000000
C	  50.6622000000	  31.5624000000	  28.6489000000
C	  49.5963000000	  29.8955000000	  27.3377000000
H	  52.6352000000	  32.3770000000	  28.3169000000
H	  52.2816000000	  32.3051000000	  30.0677000000
H	  52.6588000000	  30.9137000000	  29.1907000000
H	  49.0379000000	  29.5747000000	  28.2158000000
H	  48.8672000000	  30.4583000000	  26.7218000000
H	  49.6988000000	  29.0462000000	  26.7404000000
N	  45.5131000000	  35.4283000000	  31.8456000000
S	  44.7945000000	  35.6416000000	  30.4720000000
O	  44.6495000000	  37.0622000000	  30.1010000000
O	  45.2882000000	  34.7342000000	  29.4519000000
C	  43.0160000000	  35.0981000000	  30.8831000000
F	  42.9453000000	  33.8964000000	  31.2423000000
F	  42.2349000000	  35.2188000000	  29.8556000000
F	  42.5148000000	  35.8178000000	  31.9003000000
S	  46.6149000000	  34.3985000000	  32.3420000000
O	  47.2746000000	  33.6028000000	  31.3000000000
O	  46.0795000000	  33.6754000000	  33.4883000000
C	  47.9396000000	  35.5247000000	  33.0083000000
F	  48.6797000000	  36.0753000000	  32.0316000000
F	  47.4081000000	  36.5147000000	  33.6009000000
F	  48.8140000000	  34.9405000000	  33.8908000000
