64

Li	  56.2818000000	   9.0563600000	  50.6649000000
O	  54.2496000000	   7.2104700000	  47.5973000000
O	  55.9410000000	   7.8036000000	  49.1188000000
C	  56.2036000000	   8.5407900000	  46.8155000000
C	  55.5124000000	   7.7891700000	  47.9718000000
C	  53.4548000000	   6.7544500000	  48.6443000000
H	  57.2802000000	   8.5611300000	  47.0354000000
H	  56.1891000000	   8.0397600000	  45.8477000000
H	  55.5691000000	   9.4479800000	  46.7890000000
H	  53.3172000000	   7.6055300000	  49.2501000000
H	  52.4731000000	   6.3972400000	  48.3245000000
H	  53.9571000000	   5.9970700000	  49.2708000000
O	  59.9213853861	   7.3752700000	  51.6972000000
O	  57.8962000000	   8.5639100000	  51.4037000000
C	  59.5436653861	   9.6389900000	  52.6730000000
C	  59.0204000000	   8.4487500000	  51.9224000000
C	  59.4867553861	   6.3342100000	  50.8601000000
H	  60.0837453861	  10.0926000000	  51.8853000000
H	  58.7459000000	  10.2446000000	  53.0525000000
H	  60.2343553861	   9.2357800000	  53.4728000000
H	  58.8948000000	   6.6281300000	  49.9861000000
H	  60.3724353861	   5.8375000000	  50.5936000000
H	  58.8308000000	   5.6320100000	  51.4241000000
O	  53.7537000000	   6.5144800000	  51.5439000000
O	  55.0273000000	   8.4321700000	  52.1065000000
C	  52.6840000000	   8.4122300000	  52.6870000000
C	  53.9536000000	   7.8233400000	  52.0746000000
C	  54.8385000000	   5.6162000000	  51.6420000000
H	  52.3458000000	   7.8718100000	  53.6268000000
H	  52.7700000000	   9.4763400000	  52.8954000000
H	  51.9007000000	   8.2879000000	  52.0158000000
H	  55.1893000000	   5.4019200000	  52.6725000000
H	  54.5271000000	   4.6356100000	  51.1456000000
H	  55.6638000000	   6.0623300000	  51.0409000000
N	  59.6769853861	   9.1785300000	  47.5313000000
S	  60.7867353861	   8.0417500000	  47.6819000000
O	  61.3292853861	   7.9726800000	  48.9925000000
O	  60.2856353861	   6.7721000000	  47.1250000000
C	  62.1377653861	   8.5767600000	  46.5621000000
F	  63.2656453861	   7.9188400000	  46.8566000000
F	  62.3989753861	   9.9082300000	  46.6661000000
F	  61.8653053861	   8.3083700000	  45.2882000000
S	  59.3772753861	  10.3358000000	  48.5433000000
O	  60.4317253861	  10.9630000000	  49.2059000000
O	  58.1594000000	  10.1906000000	  49.3430000000
C	  58.8897000000	  11.6144000000	  47.2607000000
F	  59.8889753861	  11.7877000000	  46.5070000000
F	  57.8906000000	  11.4086000000	  46.4077000000
F	  58.7242000000	  12.7845000000	  47.7556000000
N	  54.2352000000	  12.2465000000	  51.2956000000
S	  53.7154000000	  11.2519000000	  50.2169000000
O	  54.4822000000	  10.0376000000	  49.9856000000
O	  52.2723000000	  11.0446000000	  50.2257000000
C	  53.9650000000	  12.1825000000	  48.6283000000
F	  53.6992000000	  11.5586000000	  47.4632000000
F	  55.2046000000	  12.7142000000	  48.5473000000
F	  53.1777000000	  13.2783000000	  48.5991000000
S	  55.3571000000	  11.9072000000	  52.3526000000
O	  56.2809000000	  10.8426000000	  51.9776000000
O	  54.9264000000	  12.0897000000	  53.7392000000
C	  56.4858000000	  13.3554000000	  52.0959000000
F	  57.4355000000	  13.2879000000	  53.0388000000
F	  57.0398000000	  13.4188000000	  50.8781000000
F	  55.8559000000	  14.5021000000	  52.2598000000
