68

Li	  27.9824000000	  54.3014000000	  41.3893000000
O	  28.2822000000	  50.9443000000	  43.0935000000
O	  27.1840000000	  52.7811000000	  42.3304000000
C	  27.7404000000	  51.6776000000	  44.1760000000
C	  26.7071000000	  52.6542000000	  43.6515000000
C	  27.7590000000	  51.4932000000	  41.9648000000
H	  27.2051000000	  50.9602000000	  44.8715000000
H	  28.5761000000	  52.1265000000	  44.7408000000
H	  25.6711000000	  52.2428000000	  43.4835000000
H	  26.5763000000	  53.4853000000	  44.3935000000
H	  28.5374000000	  51.6184000000	  41.2261000000
H	  26.8905000000	  50.8986000000	  41.5855000000
O	  29.7859000000	  53.8180000000	  40.7903000000
O	  31.8047000000	  54.5105000000	  40.3775000000
C	  30.7038000000	  53.0220000000	  41.6034000000
C	  31.9876000000	  53.8646000000	  41.5796000000
C	  30.5393000000	  54.8667000000	  40.3483000000
H	  30.1839000000	  52.7881000000	  42.5030000000
H	  30.7959000000	  52.0196000000	  41.1864000000
H	  32.0512000000	  54.5392000000	  42.4070000000
H	  32.8283000000	  53.2175000000	  41.6548000000
H	  30.1875000000	  54.9841000000	  39.3814000000
H	  30.3754000000	  55.8733000000	  40.8779000000
N	  28.3633000000	  56.1915000000	  45.3338000000
S	  28.5051000000	  56.5574000000	  43.8037000000
O	  28.6219000000	  55.4098000000	  42.9608000000
O	  27.4598000000	  57.4523000000	  43.3162000000
C	  30.1072000000	  57.4350000000	  43.5762000000
F	  31.1939000000	  56.6777000000	  43.6694000000
F	  30.2246000000	  58.3622000000	  44.5203000000
F	  30.1252000000	  58.0123000000	  42.4147000000
S	  28.6258000000	  54.8793000000	  46.1342000000
O	  29.7709000000	  54.1699000000	  45.5500000000
O	  27.4508000000	  54.2274000000	  46.6187000000
C	  29.3782000000	  55.6025000000	  47.6082000000
F	  30.2105000000	  56.5889000000	  47.3363000000
F	  28.4420000000	  56.0082000000	  48.4231000000
F	  30.0492000000	  54.7483000000	  48.3115000000
N	  26.3332000000	  52.6980000000	  36.8373000000
S	  27.5936000000	  53.1387000000	  37.7653000000
O	  28.4444000000	  54.0605000000	  37.1143000000
O	  27.2071000000	  53.3884000000	  39.1674000000
C	  28.4202000000	  51.5109000000	  37.9236000000
F	  28.7429000000	  51.0083000000	  36.7412000000
F	  27.6596000000	  50.6382000000	  38.5213000000
F	  29.4914000000	  51.5525000000	  38.6635000000
S	  25.9602000000	  53.1588000000	  35.3808000000
O	  26.6380000000	  54.2244000000	  34.6709000000
O	  24.4938000000	  53.1142000000	  35.1864000000
C	  26.4930000000	  51.6614000000	  34.3497000000
F	  27.8312000000	  51.6222000000	  34.2076000000
F	  26.2306000000	  50.5838000000	  35.0557000000
F	  25.8776000000	  51.6385000000	  33.1786000000
N	  26.9311000000	  57.6142000000	  38.4722000000
S	  26.4906000000	  56.9303000000	  39.8509000000
O	  27.2622000000	  55.8511000000	  40.4277000000
O	  26.0066000000	  57.9003000000	  40.7724000000
C	  24.9595000000	  56.1214000000	  39.1759000000
F	  24.0530000000	  56.9331000000	  38.5893000000
F	  24.2960000000	  55.4540000000	  40.0903000000
F	  25.2618000000	  55.1562000000	  38.2781000000
S	  28.3298000000	  57.5574000000	  37.7790000000
O	  28.3592000000	  57.1031000000	  36.4262000000
O	  29.3837000000	  57.0686000000	  38.5620000000
C	  28.7137000000	  59.3880342037	  37.4793000000
F	  29.9475000000	  59.5414532037	  37.0140000000
F	  27.9103000000	  59.8998132037	  36.5454000000
F	  28.6510000000	  60.0810832037	  38.6061000000
