68

Li	  18.9798000000	   8.3353300000	  12.6677000000
O	  20.2518000000	   7.4493500000	  13.6719000000
O	  21.8013000000	   6.1113300000	  14.6377000000
C	  20.5249000000	   7.9709600000	  15.0011000000
C	  21.1800000000	   6.7879900000	  15.6659000000
C	  20.8992000000	   6.2569100000	  13.5928000000
H	  21.1492000000	   8.8224000000	  14.9150000000
H	  19.6413000000	   8.3283800000	  15.5293000000
H	  21.8741000000	   6.8785000000	  16.4962000000
H	  20.4276000000	   6.1169400000	  16.1005000000
H	  20.1656000000	   5.4526900000	  13.6690000000
H	  21.2513000000	   6.0093100000	  12.6337000000
O	  19.2649000000	   5.4309000000	   9.6113000000
O	  19.6295000000	   7.3373000000	  10.9033000000
C	  20.9933000000	   7.0315100000	   8.9949200000
C	  19.9105000000	   6.6302500000	   9.9522900000
C	  18.2557000000	   5.0755700000	  10.4858000000
H	  21.6628000000	   6.2312800000	   9.0533800000
H	  20.7011000000	   7.1342600000	   7.9692100000
H	  21.4464000000	   7.8732700000	   9.4535700000
H	  18.5609000000	   5.3143400000	  11.4650000000
H	  17.3244000000	   5.7105000000	  10.3716000000
H	  18.0736000000	   3.9822200000	  10.4942000000
N	  14.9343000000	   7.5142900000	  14.4193000000
S	  16.2354000000	   6.7948000000	  13.8333000000
O	  16.0561000000	   5.5622900000	  13.0936000000
O	  17.2602000000	   7.6562500000	  13.2522000000
C	  17.0862000000	   6.2254300000	  15.3588000000
F	  17.6528000000	   7.2266000000	  16.0707000000
F	  18.1126000000	   5.4325200000	  14.9778000000
F	  16.3761000000	   5.5027700000	  16.2024000000
S	  13.4363000000	   7.2256100000	  13.9515000000
O	  12.4299000000	   7.6325900000	  14.8931000000
O	  13.1509000000	   5.9669100000	  13.2923000000
C	  13.1737000000	   8.4989800000	  12.6333000000
F	  12.9295000000	   9.7161800000	  13.0352000000
F	  14.2323000000	   8.7176100000	  11.9316000000
F	  12.1285000000	   8.2395300000	  11.7629000000
N	  18.0857000000	  11.7387000000	  16.3351000000
S	  18.3596000000	  13.0915000000	  17.0161000000
O	  19.6585000000	  13.1783000000	  17.6779000000
O	  17.8869000000	  14.2474000000	  16.3087000000
C	  17.2055000000	  12.9613000000	  18.3522000000
F	  17.4805000000	  12.0344000000	  19.2960000000
F	  16.0000000000	  12.7447000000	  17.8963000000
F	  17.1769000000	  14.1060000000	  19.0109000000
S	  17.9102000000	  11.3936000000	  14.8052000000
O	  18.5808000000	  10.1891000000	  14.3513000000
O	  17.7578000000	  12.5078000000	  13.9053000000
C	  16.1757000000	  10.8146000000	  14.9671000000
F	  15.3793000000	  11.8432000000	  15.4132000000
F	  15.6100000000	  10.4057000000	  13.8566000000
F	  15.9677000000	   9.8363300000	  15.8304000000
N	  19.8286000000	  11.5946000000	  10.6011000000
S	  18.4120000000	  10.8525000000	  10.5386000000
O	  18.2732000000	   9.6048200000	  11.2599000000
O	  17.3449000000	  11.7950000000	  10.6187000000
C	  18.4593000000	  10.3206000000	   8.7918600000
F	  18.4996000000	  11.3164000000	   7.9376400000
F	  17.3602000000	   9.5758200000	   8.5327200000
F	  19.5026000000	   9.5209600000	   8.5615200000
S	  20.8419000000	  11.3597000000	  11.7519000000
O	  20.8352000000	  10.0528000000	  12.3023000000
O	  21.0705000000	  12.4965000000	  12.6677000000
C	  22.4798000000	  11.2779000000	  10.8281000000
F	  22.7504000000	  12.4652000000	  10.3204000000
F	  23.5386000000	  10.9988000000	  11.5764000000
F	  22.3481000000	  10.4423000000	   9.8450600000
