50

Li	  45.5046000000	  39.1001000000	  52.6024000000
O	  45.1428000000	  41.9132000000	  54.9526000000
O	  44.4499000000	  40.7238000000	  53.1593000000
C	  44.1762000000	  40.9287000000	  55.3481000000
C	  43.4132000000	  40.6469000000	  54.0147000000
C	  45.2469000000	  41.7425000000	  53.5997000000
H	  44.6706000000	  40.0030000000	  55.7895000000
H	  43.5228000000	  41.4148000000	  56.1063000000
H	  42.9727000000	  39.6913000000	  53.8992000000
H	  42.6230000000	  41.2812000000	  53.8041000000
H	  44.8604000000	  42.6462000000	  53.1553000000
H	  46.2758000000	  41.5973000000	  53.2498000000
N	  47.4126000000	  39.8781000000	  49.1379000000
S	  46.6034000000	  40.6975000000	  50.1538000000
O	  45.7058000000	  39.9006000000	  50.9261000000
O	  47.3170000000	  41.7096000000	  50.8312000000
C	  45.4428000000	  41.6809000000	  49.0415000000
F	  46.0848000000	  42.6214000000	  48.3421000000
F	  44.4574000000	  42.2729000000	  49.6447000000
F	  44.8890000000	  40.9487000000	  48.0808000000
S	  48.7964000000	  40.2800000000	  48.5015000000
O	  49.8742000000	  39.3195000000	  48.7354000000
O	  49.1908000000	  41.6904000000	  48.6294000000
C	  48.5501000000	  40.1694000000	  46.6980000000
F	  49.4573000000	  40.6517000000	  45.8974000000
F	  48.3790000000	  38.9259000000	  46.3619000000
F	  47.3834000000	  40.7232000000	  46.2914000000
N	  48.2121000000	  36.5753000000	  51.7510000000
S	  48.7871000000	  35.9571000000	  50.4350000000
O	  47.8037000000	  35.7506000000	  49.4039000000
O	  50.1477000000	  36.4223000000	  50.1658000000
C	  49.1123000000	  34.2000000000	  50.9208000000
F	  49.7233000000	  33.5089000000	  49.9989000000
F	  47.9849000000	  33.4911000000	  51.0562000000
F	  49.7939000000	  34.0307000000	  52.0639000000
S	  48.6118000000	  37.9280000000	  52.3549000000
O	  47.5301000000	  38.8233000000	  52.6241000000
O	  49.7165000000	  38.5851000000	  51.7475000000
C	  49.1192000000	  37.4207000000	  54.0099000000
F	  49.4338000000	  38.4409000000	  54.7919000000
F	  48.1759000000	  36.7630000000	  54.5997000000
F	  50.1417000000	  36.5949000000	  54.0634000000
S	  44.5138000000	  37.2014000000	  52.6681000000
S	  44.6462000000	  37.4404000000	  54.7946000000
S	  42.9149000000	  36.8954000000	  55.9245000000
S	  41.1254000000	  40.6203000000	  59.6431073951
S	  39.1899000000	  40.4858000000	  60.5449273951
S	  37.5501000000	  40.7447000000	  59.2142000000
S	  41.9073000000	  38.7383000000	  58.9568000000
S	  42.0423000000	  38.6224000000	  56.8747000000
