53

Li	  46.1621000000	  19.3280000000	  25.8677000000
O	  44.7096000000	  18.3374000000	  27.1945000000
O	  45.1870000000	  16.6111000000	  28.6795000000
C	  44.6767000000	  18.9044000000	  28.5066000000
C	  45.1048000000	  17.7322000000	  29.4423000000
C	  44.5968000000	  16.9360000000	  27.4210000000
H	  45.4056000000	  19.7001000000	  28.4182000000
H	  43.6950000000	  19.2464000000	  28.8384000000
H	  46.0290000000	  17.9730000000	  29.8428000000
H	  44.4650000000	  17.3966000000	  30.2337000000
H	  43.5660000000	  16.7576000000	  27.4214000000
H	  45.1194000000	  16.2401000000	  26.6269000000
O	  42.1043000000	  18.8249000000	  23.4973000000
O	  43.3464000000	  17.0471000000	  24.1926000000
C	  41.4385000000	  17.6543000000	  23.2609000000
C	  42.3821000000	  16.5203000000	  23.3611000000
C	  43.3622000000	  18.4598000000	  23.9644000000
H	  40.6219000000	  17.5968000000	  24.0219000000
H	  40.9277000000	  17.6557000000	  22.2918000000
H	  41.9532000000	  15.6615000000	  23.7464000000
H	  42.6257000000	  16.3575000000	  22.2326000000
H	  44.0549000000	  18.4079000000	  23.0868000000
H	  43.8916000000	  19.0733000000	  24.8012000000
O	  47.5106000000	  16.7337000000	  22.9184000000
O	  46.4834000000	  18.2371000000	  24.3543000000
C	  48.5782000000	  18.8811000000	  23.2961000000
C	  47.3959000000	  17.9929000000	  23.5795000000
C	  46.4966000000	  15.7514000000	  23.1928000000
H	  49.6394000000	  18.5170000000	  23.3115000000
H	  48.4316000000	  19.4954000000	  22.4188000000
H	  48.6296000000	  19.5111000000	  24.1281000000
H	  46.1252000000	  15.5987000000	  24.1636000000
H	  45.6006000000	  15.8439000000	  22.5921000000
H	  46.8471000000	  14.7111000000	  22.9083000000
O	  49.4136000000	  19.1497000000	  28.0011000000
O	  47.4508000000	  18.7407000000	  27.0450000000
C	  48.4194000000	  16.9120000000	  28.3374000000
C	  48.3785000000	  18.3313000000	  27.7393000000
C	  49.4212000000	  20.4100000000	  27.3728000000
H	  47.7278000000	  16.2743000000	  27.7199000000
H	  49.4149000000	  16.4060000000	  28.2733000000
H	  48.2169000000	  16.9626000000	  29.3878000000
H	  50.0361000000	  21.1157000000	  27.7858000000
H	  49.8546000000	  20.1624000000	  26.4441000000
H	  48.4853000000	  20.8957000000	  27.2368000000
S	  45.4590000000	  21.2585000000	  25.8472000000
S	  44.7824000000	  21.6304000000	  23.8997000000
S	  46.3975000000	  22.1813000000	  22.6324000000
S	  47.1444000000	  27.0716000000	  23.6906000000
S	  47.2717000000	  26.9280000000	  25.7284000000
S	  47.9811000000	  28.7604000000	  26.5726000000
S	  47.8252000000	  25.2786000000	  22.8430000000
S	  46.4044000000	  24.1776000000	  21.8050000000
