42

Li	  35.1084000000	  38.7900000000	  53.4290000000
O	  38.5518000000	  39.5505000000	  54.5832000000
O	  36.3270000000	  40.0766000000	  54.4280000000
C	  38.3473000000	  40.2985000000	  53.4345000000
C	  37.0903000000	  41.1258000000	  53.7879000000
C	  37.2920000000	  39.3725000000	  55.1528000000
H	  39.2831000000	  40.8762000000	  53.2328000000
H	  38.1468000000	  39.6988000000	  52.5658000000
H	  37.2535000000	  41.8715000000	  54.5910000000
H	  36.5768000000	  41.6883000000	  53.0264000000
H	  36.9887000000	  38.3276000000	  55.0380000000
H	  37.4698000000	  39.6142000000	  56.2183000000
O	  33.3131000000	  39.7326000000	  52.8360000000
O	  31.0937000000	  40.1955000000	  52.8032000000
C	  32.9474000000	  40.0216000000	  51.4616000000
C	  31.4830000000	  39.6781000000	  51.5842000000
C	  32.2876000000	  40.3189000000	  53.5520000000
H	  33.1586000000	  41.0737000000	  51.1266000000
H	  33.5097000000	  39.2859000000	  50.8062000000
H	  30.8587000000	  40.1157000000	  50.8047000000
H	  31.4829000000	  38.5751000000	  51.4112000000
H	  32.2594000000	  39.9707000000	  54.5742000000
H	  32.4743000000	  41.3597000000	  53.4818000000
O	  32.8687000000	  36.8697000000	  56.6678000000
O	  34.3058000000	  38.1986000000	  55.2201000000
C	  34.5639000000	  38.4576000000	  57.5529000000
C	  33.9519000000	  37.8246000000	  56.3288000000
C	  32.1973000000	  36.4362000000	  55.5237000000
H	  35.3126000000	  39.2481000000	  57.3578000000
H	  33.8345000000	  38.8368000000	  58.1743000000
H	  35.1744000000	  37.6644000000	  57.9273000000
H	  31.9054000000	  37.1349000000	  54.8212000000
H	  32.7828000000	  35.6106000000	  55.0978000000
H	  31.2245000000	  35.9427000000	  55.8423000000
S	  36.1379000000	  37.7758000000	  51.9602000000
S	  34.7190000000	  36.3481000000	  52.6072000000
S	  33.2639000000	  35.8562000000	  51.1730000000
S	  29.4613000000	  32.9445000000	  50.8754000000
S	  27.4360000000	  32.8062000000	  51.4437000000
S	  26.0330000000	  33.6128000000	  49.8324000000
S	  30.5668000000	  33.8893000000	  52.4181000000
S	  31.1892000000	  35.8451000000	  52.0190000000
