45

Li	  46.2434000000	  38.4095000000	  41.4502000000
O	  47.5202000000	  42.1094000000	  41.4559000000
O	  46.3380000000	  40.3005000000	  41.1224000000
C	  46.2086000000	  42.3815000000	  41.8338000000
C	  45.3758000000	  41.2522000000	  41.2641000000
C	  47.3419000000	  41.0543000000	  40.6005000000
H	  46.1866000000	  42.4844000000	  42.9192000000
H	  45.8559000000	  43.4423000000	  41.5803000000
H	  44.6150000000	  40.9412000000	  41.9796000000
H	  44.9120000000	  41.3427000000	  40.3081000000
H	  47.0006000000	  41.4470000000	  39.6149000000
H	  48.2937000000	  40.5560000000	  40.3366000000
O	  45.0342000000	  36.6342000000	  38.1227000000
O	  46.2076000000	  37.6831000000	  39.7907000000
C	  45.6375000000	  35.6398000000	  38.9716000000
C	  46.5093000000	  36.3293000000	  40.0066000000
C	  45.0681000000	  37.8236000000	  38.8753000000
H	  45.0580000000	  34.8529000000	  39.3603000000
H	  46.4188000000	  35.1209000000	  38.4624000000
H	  46.2895000000	  35.9647000000	  41.0733000000
H	  47.6243000000	  36.2153000000	  39.9154000000
H	  45.2743000000	  38.7123000000	  38.3200000000
H	  44.1793000000	  37.8816000000	  39.4655000000
O	  49.2914000000	  38.4674000000	  43.9298000000
O	  47.8309000000	  37.9799000000	  42.2916000000
C	  49.6784000000	  36.5413000000	  42.7287000000
C	  48.7631000000	  37.7136000000	  42.9511000000
C	  48.7266000000	  39.8122000000	  43.9881000000
H	  50.5776000000	  37.0719000000	  42.4196000000
H	  49.8434000000	  36.0613000000	  43.6708000000
H	  49.2915000000	  35.8571000000	  41.9987000000
H	  48.9600000000	  40.3997000000	  43.0884000000
H	  47.6471000000	  39.7724000000	  44.2104000000
H	  49.0756000000	  40.2297000000	  44.8946000000
O	  42.9797000000	  37.5549000000	  43.8184000000
O	  44.6556000000	  38.4602000000	  42.4853000000
C	  44.0118000000	  39.6023000000	  44.5002000000
C	  43.9307000000	  38.5491000000	  43.4651000000
C	  42.9214000000	  36.5159000000	  42.8413000000
H	  43.6529000000	  40.5738000000	  44.2873000000
H	  43.3255000000	  39.2474000000	  45.2320000000
H	  45.0262000000	  39.8286000000	  44.8823000000
H	  42.1297000000	  35.8093000000	  43.0693000000
H	  42.6411000000	  36.9505000000	  41.8875000000
H	  43.8419000000	  35.9504000000	  42.8737000000
