35

Li	  44.7112000000	  44.6296000000	   2.6065700000
O	  41.2702000000	  45.6568000000	   3.1943200000
O	  43.4681000000	  44.9356000000	   3.8982500000
C	  42.0301000000	  46.1997000000	   5.3551600000
C	  42.3749000000	  45.5166000000	   4.0688300000
C	  41.3477000000	  45.0136000000	   1.9114400000
H	  41.0006000000	  46.2632000000	   5.7050600000
H	  42.5517000000	  45.5841000000	   6.1319700000
H	  42.3991000000	  47.1982000000	   5.4652900000
H	  40.3523000000	  45.1144000000	   1.4211400000
H	  42.1852000000	  45.3834000000	   1.2682200000
H	  41.6506000000	  43.9762000000	   2.0511900000
N	  46.0617000000	  48.5172000000	   1.2105400000
S	  44.7514000000	  47.6743000000	   1.0982500000
O	  44.2052000000	  47.5548000000	  -0.2405373951
O	  44.7699000000	  46.4521000000	   1.8956200000
C	  43.5084000000	  48.7723000000	   1.9053400000
F	  42.2913000000	  48.3510000000	   1.7926000000
F	  43.6116000000	  49.9658000000	   1.4313900000
F	  43.7800000000	  48.8660000000	   3.2039600000
S	  47.0952000000	  48.4710000000	   2.4299100000
O	  47.4837000000	  47.1846000000	   2.9201100000
O	  46.9830000000	  49.5685000000	   3.3921100000
C	  48.5657000000	  49.0555000000	   1.5110400000
F	  49.0870000000	  48.1080000000	   0.6966626049
F	  48.2445000000	  50.1273000000	   0.7057626049
F	  49.5461000000	  49.3923000000	   2.2981900000
S	  46.0408000000	  43.3529000000	   1.8944000000
S	  45.4829000000	  43.3235000000	  -0.2173373951
S	  43.6892000000	  42.2236000000	  -0.4846373951
S	  41.2101000000	  41.8172000000	  -4.6182373951
S	  41.5134000000	  41.2621000000	  -6.6488373951
S	  40.5989000000	  42.6359000000	  -8.0373373951
S	  42.4601000000	  43.1867000000	  -3.7433373951
S	  42.2454000000	  43.3468000000	  -1.6178373951
