50

Li	  37.4734000000	  14.4831000000	  37.8130000000
O	  37.9698000000	  14.3069000000	  39.5162000000
O	  38.3114000000	  15.5359000000	  41.2868000000
C	  39.2630000000	  13.8372000000	  39.9441000000
C	  39.5092000000	  14.7576000000	  41.2172000000
C	  37.3620000000	  14.7274000000	  40.6863000000
H	  39.2078000000	  12.7819000000	  40.2855000000
H	  40.0990000000	  13.8053000000	  39.2530000000
H	  39.7057000000	  14.2147000000	  42.1654000000
H	  40.3378000000	  15.4285000000	  41.0382000000
H	  36.5435000000	  15.3472000000	  40.3747000000
H	  37.1242000000	  13.7598000000	  41.2928000000
N	  34.7495000000	  11.0589000000	  38.8055000000
S	  34.2214000000	  11.9142000000	  40.0217000000
O	  35.2878000000	  12.2498000000	  40.9312000000
O	  33.1428000000	  12.7993000000	  39.8329000000
C	  33.4985000000	  10.4842000000	  40.9118000000
F	  32.6931000000	   9.6712400000	  40.1560000000
F	  32.6545000000	  10.8648000000	  41.8264000000
F	  34.4307000000	   9.6538000000	  41.4174000000
S	  35.5129000000	  11.4992000000	  37.4965000000
O	  35.9357000000	  12.8663000000	  37.7103000000
O	  34.7174000000	  11.2093000000	  36.2668000000
C	  36.9602000000	  10.4581000000	  37.4384000000
F	  36.6782000000	   9.1486900000	  37.5014000000
F	  37.7109000000	  10.6658000000	  36.3656000000
F	  37.7765000000	  10.6332000000	  38.5054000000
N	  35.5378000000	  18.0776000000	  36.0097000000
S	  36.3324000000	  17.7827000000	  37.2961000000
O	  36.6022000000	  16.3986000000	  37.5096000000
O	  37.3241000000	  18.7632000000	  37.5618000000
C	  35.0482000000	  18.1635000000	  38.5330000000
F	  34.1495000000	  17.1984000000	  38.6700000000
F	  34.5337000000	  19.3031000000	  38.1448000000
F	  35.6306000000	  18.3537000000	  39.6545000000
S	  35.5590000000	  19.3040000000	  34.9958000000
O	  36.4758000000	  19.1427000000	  33.9314000000
O	  35.4750000000	  20.6444000000	  35.5424000000
C	  33.9438000000	  18.9979000000	  34.2268000000
F	  32.8971000000	  19.0987000000	  35.0960000000
F	  33.6865000000	  19.9544000000	  33.3383000000
F	  33.8301000000	  17.7875000000	  33.6281000000
S	  36.5263000000	   8.4336600000	  29.0732000000
S	  36.4604000000	   9.4307800000	  30.9047000000
S	  37.7362000000	  11.0925000000	  31.2556000000
S	  36.8626000000	  14.6463000000	  33.8888000000
S	  37.8186000000	  13.6007000000	  35.4471000000
S	  39.2239000000	  14.8087000000	  36.4754000000
S	  37.8615000000	  14.3612000000	  32.0994000000
S	  36.7827000000	  12.9083000000	  30.9612000000
