39

Li	  52.5545000000	  35.8000000000	   6.7986200000
O	  51.7260000000	  37.0173000000	  10.2363000000
O	  51.4737000000	  36.9289000000	   7.8463200000
C	  50.9737000000	  38.9697000000	   9.0414600000
C	  51.4137000000	  37.5403000000	   8.9230100000
C	  51.7300000000	  35.6279000000	  10.3615000000
H	  51.2251000000	  39.5645000000	   8.1371600000
H	  49.8570000000	  39.0791000000	   9.1018200000
H	  51.3820000000	  39.5046000000	   9.9571800000
H	  50.6792000000	  35.2583000000	  10.3448000000
H	  52.3456000000	  35.1689000000	   9.5958200000
H	  52.1595000000	  35.4054000000	  11.3753000000
O	  55.2093000000	  38.7165000000	   8.8602500000
O	  54.1476000000	  36.7198000000	   8.2166700000
C	  55.6368000000	  36.5817000000	  10.0772000000
C	  54.9470000000	  37.3142000000	   8.9389600000
C	  54.5649000000	  39.3803000000	   7.7717100000
H	  55.8770000000	  35.5749000000	   9.7538700000
H	  56.5346000000	  37.1756000000	  10.4161000000
H	  54.8385000000	  36.6263000000	  10.8562000000
H	  53.5216000000	  39.2316000000	   7.6654700000
H	  54.8356000000	  40.4399000000	   7.8947500000
H	  54.8889000000	  38.9713000000	   6.8175400000
S	  52.9249000000	  36.5987000000	   4.8486000000
S	  52.0140000000	  38.3451000000	   4.1136700000
S	  52.3958000000	  40.1799000000	   5.1359500000
S	  54.7583000000	  44.0362000000	   3.3527200000
S	  55.6309000000	  45.9595000000	   3.7244600000
S	  57.7366000000	  45.9885000000	   3.9876200000
S	  53.0226000000	  43.4989000000	   4.4458500000
S	  52.1980000000	  41.8477000000	   3.7898000000
S	  52.8460000000	  33.7428000000	   6.6012300000
S	  50.7890000000	  33.9862000000	   7.0143700000
S	  50.1039000000	  32.3993000000	   8.1925700000
S	  53.8019000000	  32.0337000000	  10.3206000000
S	  55.0967000000	  30.6885000000	   9.3353700000
S	  55.1593000000	  31.1676000000	   7.2360600000
S	  51.9560000000	  31.2736000000	  10.8285000000
S	  50.2877000000	  32.5845000000	  10.2934000000
