57

Li	  17.9399000000	  17.2772000000	  52.7514000000
O	  19.8090000000	  17.4212000000	  52.2376000000
O	  21.8781000000	  16.8249000000	  52.9172000000
C	  20.5882000000	  18.6074000000	  52.3892000000
C	  22.0212000000	  18.1501000000	  52.4150000000
C	  20.6894000000	  16.3822000000	  52.3804000000
H	  20.5354000000	  19.2744000000	  51.5370000000
H	  20.2931000000	  19.1696000000	  53.2974000000
H	  22.3606000000	  18.3452000000	  51.3967000000
H	  22.5069000000	  18.8607000000	  53.0747000000
H	  20.3224000000	  15.6111000000	  53.0589000000
H	  20.9042000000	  15.9727000000	  51.3840000000
N	  16.8290000000	  15.6930000000	  49.5213000000
S	  17.3164000000	  14.7581000000	  50.6466000000
O	  18.2152000000	  13.7455000000	  50.1916000000
O	  17.7192000000	  15.3907000000	  51.9116000000
C	  15.7803000000	  13.8007000000	  51.0864000000
F	  14.6553000000	  14.4618000000	  51.1730000000
F	  15.8257000000	  13.3716000000	  52.3074000000
F	  15.5392000000	  12.7134000000	  50.3461000000
S	  16.9500000000	  17.2805000000	  49.4301000000
O	  17.7784000000	  17.8888000000	  50.4186000000
O	  15.7653000000	  18.0037000000	  49.0057000000
C	  17.9095000000	  17.3800000000	  47.8494000000
F	  18.4104000000	  18.5431000000	  47.6239000000
F	  18.9900000000	  16.6173000000	  47.8651000000
F	  17.1804000000	  17.0502000000	  46.8631000000
N	  15.0053000000	  19.7952000000	  52.7294000000
S	  14.6674000000	  18.3501000000	  53.2309000000
O	  15.5745000000	  17.3391000000	  52.7283000000
O	  14.1623000000	  18.2599000000	  54.5685000000
C	  13.2113000000	  17.9761000000	  52.3379000000
F	  13.3435000000	  18.0313000000	  51.0377000000
F	  12.2057000000	  18.7780000000	  52.6833000000
F	  12.7988000000	  16.7601000000	  52.6306000000
S	  16.4511000000	  20.3483000000	  52.6955000000
O	  16.7209000000	  21.0814000000	  51.4571000000
O	  17.5176000000	  19.5128000000	  53.3096000000
C	  16.3535000000	  21.6610000000	  53.9819000000
F	  17.4294000000	  22.4087000000	  54.0411000000
F	  15.3973000000	  22.5077000000	  53.7140000000
F	  16.0731000000	  21.2211000000	  55.2125000000
N	  20.3552000000	  16.5273000000	  55.9621000000
S	  18.7894000000	  16.6606000000	  55.8993000000
O	  18.3116000000	  16.5828000000	  54.5470000000
O	  18.0274000000	  15.9921000000	  56.9136000000
C	  18.5521000000	  18.4435000000	  56.4613000000
F	  17.3165000000	  18.8643000000	  56.4438000000
F	  19.2409000000	  19.2084000000	  55.6988000000
F	  19.1031000000	  18.5010000000	  57.6866000000
S	  21.1841000000	  15.2906000000	  56.3013000000
O	  22.1659000000	  15.1026000000	  55.2444000000
O	  20.3183000000	  14.2414000000	  56.7542000000
C	  22.0961000000	  15.8296000000	  57.8287000000
F	  22.5276000000	  17.1060000000	  57.8170000000
F	  21.2670000000	  15.7140000000	  58.8835000000
F	  23.1615000000	  15.1348000000	  58.1464000000
