75

Li	  21.8006000000	  41.6853000000	  30.1975000000
O	  19.8477000000	  41.8925000000	  29.5722000000
O	  18.3079000000	  40.8557000000	  28.4663000000
C	  19.5528000000	  42.5851000000	  28.3954000000
C	  18.2230000000	  42.0862000000	  27.9530000000
C	  18.7663000000	  41.0049000000	  29.7036000000
H	  19.5204000000	  43.6017000000	  28.6182000000
H	  20.3820000000	  42.4349000000	  27.6319000000
H	  17.3791000000	  42.6284000000	  28.3950000000
H	  18.0813000000	  42.0287000000	  26.8595000000
H	  18.9199000000	  39.9878000000	  30.1230000000
H	  17.9447000000	  41.4619000000	  30.3394000000
O	  21.4769000000	  43.4535000000	  31.1114000000
O	  22.4306000000	  45.2990000000	  31.8650000000
C	  20.7834000000	  43.6826000000	  32.3395000000
C	  21.8087000000	  44.6368000000	  32.9658000000
C	  22.0254000000	  44.6574000000	  30.7563000000
H	  19.7842000000	  44.1178000000	  32.0709000000
H	  20.5764000000	  42.7971000000	  32.8849000000
H	  21.3107000000	  45.3735000000	  33.5880000000
H	  22.4751000000	  44.1719000000	  33.6919000000
H	  22.8031000000	  44.4699000000	  30.0905000000
H	  21.3062000000	  45.4178000000	  30.3833000000
O	  21.6242000000	  38.2106000000	  27.8722000000
O	  22.0498000000	  40.1647000000	  28.9473000000
C	  23.9364000000	  38.7118000000	  28.6568000000
C	  22.4246000000	  39.1107000000	  28.5077000000
C	  20.2153000000	  38.3464000000	  27.7597000000
H	  24.2475000000	  38.4069000000	  29.6357000000
H	  24.3108000000	  37.9529000000	  27.9881000000
H	  24.5106000000	  39.6297000000	  28.3987000000
H	  19.9712000000	  39.2214000000	  27.2181000000
H	  19.7073000000	  37.6326000000	  27.0958000000
H	  19.6698000000	  38.4120000000	  28.7148000000
O	  21.8304000000	  38.3874000000	  33.1407000000
O	  21.7087000000	  40.4756000000	  32.0423000000
C	  22.5395000000	  40.5233000000	  34.2848000000
C	  21.9813000000	  39.7827000000	  33.0222000000
C	  21.6502000000	  37.7000000000	  31.8643000000
H	  22.4336000000	  39.9917000000	  35.2263000000
H	  23.6062000000	  40.5148000000	  34.1322000000
H	  22.2036000000	  41.5334000000	  34.2539000000
H	  22.2414000000	  37.9414000000	  31.0097000000
H	  21.7060000000	  36.5881000000	  31.9234000000
H	  20.6649000000	  37.9637000000	  31.5541000000
N	  26.4249000000	  41.6460000000	  31.4099000000
S	  25.5068000000	  42.2270000000	  30.2681000000
O	  25.9717000000	  42.1687000000	  28.8947000000
O	  24.0524000000	  42.0767000000	  30.5183000000
C	  25.7080000000	  43.9478000000	  30.7449000000
F	  25.2270000000	  44.7570000000	  29.8044000000
F	  26.9832000000	  44.3812000000	  30.8098000000
F	  25.0170000000	  44.2276000000	  31.8600000000
S	  26.0743000000	  40.5924000000	  32.4977000000
O	  25.2979000000	  39.5304000000	  31.9664000000
O	  25.8994000000	  41.1101000000	  33.8437000000
C	  27.6280000000	  39.6869000000	  32.6159000000
F	  27.9125000000	  39.1679000000	  31.4340000000
F	  28.6153000000	  40.4898000000	  32.9315000000
F	  27.4904000000	  38.7104000000	  33.4816000000
N	  21.9160000000	  43.9186000000	  26.2326000000
S	  23.1657000000	  43.3398000000	  26.9959000000
O	  24.3024000000	  44.1805000000	  27.0264000000
O	  22.9003000000	  42.6788000000	  28.2200000000
C	  23.6798000000	  42.0020000000	  25.8392000000
F	  22.8584000000	  41.0026000000	  25.8896000000
F	  24.8695000000	  41.5425000000	  26.0676000000
F	  23.6956000000	  42.3422000000	  24.5583000000
S	  21.5623000000	  45.4277000000	  26.2948000000
O	  22.4281000000	  46.3185000000	  25.5180000000
O	  21.1057000000	  45.8396000000	  27.5899000000
C	  20.0782000000	  45.4832000000	  25.1973000000
F	  20.3409000000	  45.5071000000	  23.9039000000
F	  19.2474000000	  44.4806000000	  25.3955000000
F	  19.4210000000	  46.5902000000	  25.4532000000
