20

Li	  29.2852000000	  47.4632000000	   6.6555100000
O	  27.1820000000	  49.1725000000	   4.1470100000
O	  28.5901000000	  47.4871000000	   4.8841000000
C	  26.1843000000	  47.1158000000	   4.8284600000
C	  27.4337000000	  47.9228000000	   4.6161300000
C	  28.2737000000	  50.0994000000	   3.9201100000
H	  26.3535000000	  46.3694000000	   5.4891400000
H	  25.3706000000	  47.6227000000	   5.2631300000
H	  25.9876000000	  46.5676000000	   3.9301700000
H	  28.0494000000	  51.1182000000	   3.5561400000
H	  28.9044000000	  50.1706000000	   4.8248300000
H	  28.8582000000	  49.6854000000	   3.0384200000
S	  29.8550000000	  49.6043000000	   7.1966400000
S	  29.0969000000	  49.6494000000	   9.1038100000
S	  27.1379000000	  48.9018000000	   9.1016200000
S	  28.3373000000	  44.5408000000	   8.7014200000
S	  29.2486000000	  44.9309000000	   6.8117600000
S	  31.0089000000	  46.1150000000	   7.0942200000
S	  26.5352000000	  45.4816000000	   9.1173400000
S	  26.7418000000	  47.2114000000	  10.3375000000
