20

Li	  13.4737000000	   1.6365600000	   7.1296100000
O	  13.9833000000	  -1.7881032037	   4.9552500000
O	  14.2182000000	   0.2125967963	   6.0215900000
C	  15.7958000000	  -1.5086032037	   6.7053300000
C	  14.5459000000	  -0.9944032037	   5.9798700000
C	  12.7978000000	  -1.2392032037	   4.3384100000
H	  15.9444000000	  -2.5181032037	   6.2889000000
H	  16.6710000000	  -0.8657032037	   6.5748300000
H	  15.5359000000	  -1.6882032037	   7.7442100000
H	  13.0799000000	  -0.6348032037	   3.4611900000
H	  12.1635000000	  -2.0706032037	   4.0577800000
H	  12.2387000000	  -0.5918032037	   4.9795000000
S	  13.5059000000	   0.3023967963	   9.1044300000
S	  14.4516000000	   2.2384600000	   9.3901900000
S	  16.0004000000	   2.5793000000	   8.1157400000
S	  12.9076000000	   4.2882000000	   4.8046500000
S	  12.1611000000	   2.4886800000	   5.1181400000
S	  11.2391000000	   2.1969200000	   6.9625600000
S	  14.9860000000	   4.1529100000	   4.9289700000
S	  15.7126000000	   4.3957400000	   6.8959400000
