53

Li	  53.6988000000	   6.2077600000	  20.0741000000
O	  57.3806000000	   6.0404000000	  22.0583000000
O	  55.2329000000	   5.8874100000	  21.1480000000
C	  57.0118000000	   4.7098100000	  20.0518000000
C	  56.4217000000	   5.6309600000	  21.1515000000
C	  56.8669000000	   6.9244900000	  23.0502000000
H	  56.7285000000	   3.7407100000	  20.3769000000
H	  56.5474000000	   4.8354600000	  19.0596000000
H	  58.0825000000	   4.6828300000	  20.0367000000
H	  56.6297000000	   7.8956200000	  22.6588000000
H	  55.9487000000	   6.5747800000	  23.5102000000
H	  57.6088000000	   7.0222800000	  23.7746000000
O	  55.2440000000	   7.0756400000	  16.2732000000
O	  54.2372000000	   6.6800800000	  18.2060000000
C	  53.4466000000	   5.4551300000	  16.3181000000
C	  54.3163000000	   6.4833600000	  17.0281000000
C	  56.3156000000	   7.8661800000	  16.8346000000
H	  53.8475000000	   5.3607900000	  15.2955000000
H	  53.5016000000	   4.5033700000	  16.9035000000
H	  52.3707000000	   5.6185400000	  16.1774000000
H	  57.0418000000	   7.3282100000	  17.4972000000
H	  56.8245000000	   8.1990200000	  15.9267000000
H	  56.0226000000	   8.8856700000	  17.1437000000
N	  53.2978000000	  10.2197000000	  18.4217000000
S	  53.4731000000	   9.8082700000	  19.9741000000
O	  52.7254000000	  10.6317000000	  20.9342000000
O	  53.5436000000	   8.4018200000	  20.2970000000
C	  55.1907000000	  10.2465000000	  20.3003000000
F	  55.5532000000	   9.8979400000	  21.5284000000
F	  55.3728000000	  11.5533000000	  20.2989000000
F	  56.0949000000	   9.7531900000	  19.4777000000
S	  52.0957000000	  11.0439000000	  17.8620000000
O	  52.5337000000	  12.2061000000	  17.1944000000
O	  51.0354000000	  11.2529000000	  18.8851000000
C	  51.3833000000	   9.8690800000	  16.6690000000
F	  50.5668000000	  10.4714000000	  15.8283000000
F	  52.2817000000	   9.3341700000	  15.8527000000
F	  50.7669000000	   8.8845400000	  17.3162000000
N	  50.2367000000	   4.1890400000	  21.5305000000
S	  51.2028000000	   4.9553700000	  20.5612000000
O	  51.9398000000	   6.0368400000	  21.1676000000
O	  51.9311000000	   4.1932300000	  19.5549000000
C	  50.0033000000	   5.7859400000	  19.5180000000
F	  49.0870000000	   5.0766300000	  18.8426000000
F	  50.5858000000	   6.5404700000	  18.6587000000
F	  49.3422000000	   6.5658700000	  20.3716000000
S	  50.5919000000	   3.8791000000	  23.0708000000
O	  51.9447000000	   4.3172600000	  23.4443000000
O	  50.1431000000	   2.6388300000	  23.6496000000
C	  49.5149000000	   5.1068600000	  23.9728000000
F	  49.9418000000	   5.5364600000	  25.1846000000
F	  49.2809000000	   6.2075400000	  23.2687000000
F	  48.3559000000	   4.6227700000	  24.1583000000
