50

Li	   5.1372500000	  23.1782000000	   8.9151900000
O	   6.1927400000	  23.3988000000	   7.0870000000
O	   8.1965600000	  22.9286000000	   6.1598800000
C	   5.8550400000	  22.5252000000	   6.0599100000
C	   7.2157400000	  21.9998000000	   5.6755300000
C	   7.4041400000	  23.8885000000	   6.6594100000
H	   5.1327200000	  21.7913000000	   6.4501800000
H	   5.5051900000	  23.1976000000	   5.2446700000
H	   7.3634200000	  20.9339000000	   6.0892100000
H	   7.1747300000	  21.9251000000	   4.5887600000
H	   7.3955300000	  24.6455000000	   5.8875700000
H	   7.8891600000	  24.3324000000	   7.5064000000
O	   6.5644400000	  22.3274000000	   9.7108200000
O	   7.4628600000	  21.9018000000	  11.6888000000
C	   6.8176500000	  20.9396000000	   9.7313900000
C	   7.5291600000	  20.6120000000	  11.0193000000
C	   7.3891500000	  22.8466000000	  10.7401000000
H	   5.8574600000	  20.3646000000	   9.8578900000
H	   7.4067400000	  20.6227000000	   8.8580300000
H	   7.0976800000	  19.8820000000	  11.6482000000
H	   8.5332000000	  20.1487000000	  10.8456000000
H	   8.3248900000	  23.0706000000	  10.3343000000
H	   6.9167100000	  23.7615000000	  11.0163000000
O	   3.8808100000	  21.9168000000	   8.8573100000
N	   1.7388400000	  21.2114000000	   8.9807700000
C	   0.7260280000	  20.2865000000	   8.4770100000
C	   1.3770800000	  22.2948000000	   9.9273500000
C	   2.9935600000	  21.1465000000	   8.4715100000
H	   0.6675928739	  19.4494000000	   9.2097300000
H	  -0.2732071261	  20.6646000000	   8.5134700000
H	   0.9005290000	  19.8770000000	   7.4814100000
H	   2.1567600000	  23.0720000000	  10.0977000000
H	   0.5831928739	  22.8861000000	   9.6454000000
H	   1.1667500000	  22.0498000000	  10.9601000000
H	   3.1562200000	  20.4389000000	   7.6675000000
N	   3.7386100000	  27.2302000000	   8.7693000000
S	   4.0961600000	  25.9087000000	   8.1054800000
O	   4.7974700000	  25.9880000000	   6.8509200000
O	   4.3912000000	  24.8883000000	   9.0527700000
C	   2.4246800000	  25.3699000000	   7.6277900000
F	   2.4557600000	  24.3360000000	   6.8757100000
F	   1.6676500000	  26.2256000000	   6.9922700000
F	   1.7403500000	  25.0918000000	   8.7228100000
S	   4.8573200000	  28.1513000000	   9.3584600000
O	   4.6280600000	  29.5588000000	   9.0558200000
O	   6.2157300000	  27.6130000000	   9.2760800000
C	   4.4185800000	  28.1610000000	  11.1022000000
F	   3.1315400000	  28.4497000000	  11.3213000000
F	   4.6284700000	  27.0385000000	  11.7437000000
F	   5.2480000000	  29.0170000000	  11.5913000000
