48

Li	  21.2814000000	  37.4480000000	  55.4544000000
O	  19.6233000000	  36.4991000000	  58.5475000000
O	  19.6756000000	  37.3662000000	  56.4914000000
C	  18.7783000000	  35.6764000000	  57.8006000000
C	  18.5958000000	  36.4295000000	  56.4664000000
C	  19.7569000000	  37.6509000000	  57.8387000000
H	  19.2714000000	  34.7733000000	  57.5359000000
H	  17.9059000000	  35.3243000000	  58.3913000000
H	  18.7034000000	  35.7528000000	  55.7099000000
H	  17.6738000000	  36.9779000000	  56.3743000000
H	  19.0050000000	  38.4181000000	  58.1577000000
H	  20.7229000000	  38.2176000000	  57.9919000000
O	  22.3558000000	  36.4666000000	  56.6302000000
N	  23.4456000000	  34.6080000000	  55.9963000000
C	  24.2868000000	  33.4403000000	  56.4292000000
C	  23.2901000000	  34.6644000000	  54.5389000000
C	  22.9905000000	  35.4770000000	  56.9942000000
H	  23.6302000000	  32.6455000000	  56.6837000000
H	  24.8677000000	  33.0081000000	  55.6145000000
H	  24.9698000000	  33.6079000000	  57.2564000000
H	  23.6111000000	  35.5622000000	  54.0632000000
H	  23.8260000000	  33.7984000000	  54.0294000000
H	  22.2337000000	  34.5777000000	  54.2869000000
H	  23.0903000000	  35.1453000000	  58.0555000000
O	  20.9936000000	  36.7081000000	  53.7614000000
N	  20.0433000000	  35.7877000000	  51.9081000000
C	  18.8290000000	  35.5867000000	  51.0825000000
C	  21.2930000000	  35.1423000000	  51.5302000000
C	  20.0473000000	  36.5851000000	  52.9914000000
H	  17.9573000000	  36.1430000000	  51.4517000000
H	  19.2069000000	  35.8922000000	  50.1476000000
H	  18.6634000000	  34.5459000000	  51.1603000000
H	  21.6776000000	  34.4291000000	  52.2670000000
H	  21.1032000000	  34.5999000000	  50.5664000000
H	  22.0761000000	  35.8470000000	  51.3686000000
H	  19.0640000000	  37.1146000000	  53.1411000000
O	  21.8705000000	  39.3218000000	  55.5142000000
N	  23.8330000000	  39.7980000000	  54.4128000000
C	  23.8445000000	  38.5562000000	  53.6816000000
C	  24.9894000000	  40.6558000000	  54.4936000000
C	  22.8199000000	  40.0942000000	  55.2519000000
H	  23.2076000000	  38.5737000000	  52.7841000000
H	  24.7820000000	  38.2900000000	  53.3176000000
H	  23.5878000000	  37.8136000000	  54.3593000000
H	  25.8309000000	  40.0447000000	  54.9274000000
H	  25.2847000000	  40.9392000000	  53.4528000000
H	  24.8696000000	  41.5758000000	  55.1161000000
H	  22.7648000000	  41.1722000000	  55.4802000000
