61

Li	  19.3978000000	  20.6766000000	  57.5347000000
O	  18.9871000000	  24.4999000000	  60.9778139160
N	  17.8630000000	  22.4999000000	  60.8027039160
C	  17.9529000000	  21.0550000000	  60.6091139160
C	  16.5565000000	  23.0937000000	  60.9573139160
C	  18.9888000000	  23.2837000000	  60.7520639160
H	  18.6641000000	  20.6348000000	  61.2520139160
H	  17.0705000000	  20.5447000000	  60.8738439160
H	  18.2146000000	  20.8356000000	  59.5939799160
H	  16.4366000000	  23.1706000000	  62.0046839160
H	  16.5051000000	  24.0862000000	  60.6213939160
H	  15.8023000000	  22.4741000000	  60.5757539160
H	  19.8837000000	  22.7091000000	  60.5058439160
O	  18.3266000000	  22.0958000000	  57.1557000000
N	  16.6664000000	  23.6739000000	  57.0602000000
C	  17.4366000000	  24.7734000000	  57.7416000000
C	  15.2187000000	  23.9947000000	  56.9742000000
C	  17.1650000000	  22.4141000000	  56.8643000000
H	  17.1220000000	  24.8798000000	  58.7357000000
H	  18.5531000000	  24.6276000000	  57.7902000000
H	  17.2112000000	  25.7637000000	  57.3367000000
H	  15.0764000000	  24.7402000000	  56.1858000000
H	  14.6488000000	  23.0783000000	  56.6571000000
H	  14.8579000000	  24.5301000000	  57.8241000000
H	  16.4808000000	  21.6948000000	  56.4159000000
O	  20.7989000000	  20.4386000000	  58.8234000000
N	  23.0051000000	  20.0556000000	  59.4912709160
C	  23.4798000000	  21.4066000000	  59.0680000000
C	  23.9852000000	  19.2660000000	  60.1892239160
C	  21.7238000000	  19.6962000000	  59.2729000000
H	  23.7070000000	  21.3164000000	  58.0376000000
H	  22.6490000000	  22.0684000000	  59.1460000000
H	  24.2701000000	  21.8280000000	  59.7324129160
H	  24.7674000000	  19.0212000000	  59.4816359160
H	  24.4171000000	  19.8811000000	  60.9977939160
H	  23.6098000000	  18.3719000000	  60.6414339160
H	  21.6489000000	  18.6061000000	  59.5474539160
O	  18.4272000000	  19.1038000000	  57.1470000000
N	  16.6569000000	  17.5035000000	  56.9018000000
C	  16.3087000000	  16.1650000000	  56.3487000000
C	  15.6327000000	  18.1901000000	  57.6666000000
C	  17.8598000000	  18.0355000000	  56.6709000000
H	  17.2371000000	  15.6341000000	  56.1534000000
H	  15.7146000000	  15.5025000000	  56.9072000000
H	  15.7179000000	  16.2914000000	  55.4747000000
H	  14.9693000000	  18.7217000000	  56.9147000000
H	  14.9403000000	  17.4635000000	  58.1855000000
H	  15.8931000000	  18.8947000000	  58.4524000000
H	  18.3895000000	  17.5783000000	  55.7783000000
O	  20.5731000000	  20.6682000000	  55.9155000000
N	  20.7432000000	  20.8150000000	  53.6008000000
C	  20.3780000000	  21.7831000000	  52.5970000000
C	  20.5979000000	  19.3716000000	  53.2504000000
C	  20.7526000000	  21.2809000000	  54.8675000000
H	  20.5017000000	  21.2967000000	  51.6934000000
H	  19.3301000000	  22.0644000000	  52.7415000000
H	  21.0046000000	  22.6389000000	  52.6505000000
H	  19.9150000000	  19.1550000000	  52.3978000000
H	  21.4906000000	  18.9697000000	  52.8324000000
H	  20.2375000000	  18.6830000000	  54.0677000000
H	  21.0991000000	  22.3158000000	  54.8148000000
