29

Li	  39.9081000000	  52.1271000000	  26.3643000000
O	  41.5192000000	  51.8479000000	  27.6435000000
N	  43.0759000000	  52.3508000000	  29.3254000000
C	  42.9388000000	  53.7550000000	  29.2204000000
C	  43.8975000000	  51.8415000000	  30.4492000000
C	  42.4392000000	  51.5130000000	  28.4199000000
H	  42.6709000000	  54.1345000000	  28.1954000000
H	  42.1918000000	  54.1484000000	  29.9019000000
H	  43.8496000000	  54.2944000000	  29.5089000000
H	  44.6980000000	  52.5313000000	  30.7472000000
H	  43.2136000000	  51.5666000000	  31.2359000000
H	  44.4159000000	  50.9085000000	  30.2011000000
H	  42.7961000000	  50.4506000000	  28.5204000000
S	  40.3442000000	  51.3878000000	  24.4280000000
S	  39.8715000000	  49.3404000000	  24.6165000000
S	  38.7314000000	  49.1369000000	  26.4206000000
S	  35.4149000000	  45.7140000000	  28.7453000000
S	  35.3239000000	  45.0134000000	  30.8137000000
S	  34.8714000000	  46.5644000000	  32.1714000000
S	  37.3219000000	  46.1439000000	  27.9837000000
S	  37.3167000000	  47.5276000000	  26.3684000000
S	  38.0262000000	  52.2783000000	  27.3758000000
S	  38.4786000000	  53.9788000000	  26.2314000000
S	  40.1117000000	  55.1253000000	  26.9512000000
S	  43.3616000000	  58.3450000000	  25.7079000000
S	  45.3033000000	  57.9523000000	  25.0607000000
S	  46.1236000000	  59.6010470327	  23.9583000000
S	  42.0184000000	  57.0060000000	  24.7551000000
S	  41.8687000000	  55.1813000000	  25.8142000000
