59

Li	  15.6891000000	  29.8773000000	  18.0309000000
O	  12.7325000000	  30.9034000000	  20.5263000000
O	  14.5015000000	  30.3395000000	  19.3046000000
C	  13.2255000000	  29.6754000000	  21.1035000000
C	  14.5894000000	  29.6224000000	  20.4741000000
C	  13.8242000000	  31.3847000000	  19.8537000000
H	  13.2534000000	  29.6742000000	  22.2486000000
H	  12.6225000000	  28.8468000000	  20.7694000000
H	  15.2795000000	  30.1056000000	  21.2199000000
H	  14.9210000000	  28.6081000000	  20.3282000000
H	  13.5032000000	  32.1090000000	  19.0529000000
H	  14.5126000000	  31.9716000000	  20.4535000000
O	  14.2500000000	  30.2299000000	  16.3878000000
O	  12.9632000000	  31.3388000000	  14.8642000000
C	  14.5617000000	  29.8427000000	  15.0249000000
C	  14.1314000000	  31.0066000000	  14.1819000000
C	  13.4464000000	  31.3545000000	  16.2211000000
H	  15.5993000000	  29.7023000000	  14.9148000000
H	  14.0839000000	  28.9151000000	  14.7056000000
H	  14.6888000000	  31.9894000000	  14.1438000000
H	  13.9302000000	  30.7806000000	  13.1194000000
H	  12.6171000000	  31.4435000000	  16.8635000000
H	  14.0552000000	  32.2000000000	  16.4261000000
O	  16.5666000000	  31.7056000000	  16.7708000000
N	  17.9311000000	  33.4806000000	  17.4805000000
C	  18.6862000000	  34.5622000000	  16.9649000000
C	  17.8956000000	  33.1378000000	  18.8827000000
C	  17.3113000000	  32.6533000000	  16.5423000000
H	  18.1562000000	  35.3028000000	  16.3576000000
H	  19.2501000000	  35.0824000000	  17.7059000000
H	  19.3721000000	  33.9976000000	  16.2899000000
H	  18.5987000000	  32.2787000000	  18.9328000000
H	  18.1439000000	  33.9948000000	  19.5208000000
H	  16.9582000000	  32.6879000000	  19.1724000000
H	  17.4445000000	  33.0133000000	  15.5144000000
O	  15.5979000000	  28.0492000000	  17.7848000000
N	  14.1046000000	  26.3188000000	  17.4250000000
C	  12.9110000000	  27.2308000000	  17.6266000000
C	  13.8559000000	  24.9269000000	  17.1353000000
C	  15.3463000000	  26.8377000000	  17.5919000000
H	  12.7960000000	  27.4075000000	  18.6790000000
H	  13.1001000000	  28.1799000000	  17.0536000000
H	  12.0205000000	  26.8519000000	  17.1632000000
H	  14.6147000000	  24.4411000000	  16.6335000000
H	  13.6600000000	  24.2392000000	  18.0405000000
H	  12.9837000000	  24.7603000000	  16.5026000000
H	  16.0724000000	  26.0159000000	  17.7120000000
O	  17.3876000000	  29.7749000000	  18.8779000000
N	  18.6957000000	  28.5097000000	  20.3822000000
C	  19.9386000000	  28.5656000000	  21.1799000000
C	  17.9954000000	  27.2200000000	  20.1591000000
C	  18.2636000000	  29.6389000000	  19.7225000000
H	  20.6124000000	  29.2134000000	  20.6711000000
H	  19.7550000000	  28.8687000000	  22.2432000000
H	  20.5246000000	  27.6204000000	  21.1605000000
H	  16.8991000000	  27.3987000000	  20.2583000000
H	  18.1318000000	  26.7544000000	  19.1343000000
H	  18.2606000000	  26.4175000000	  20.9003000000
H	  18.8779000000	  30.4784000000	  20.0667000000
