41

Li	  42.2273000000	  52.6415000000	  37.7851000000
O	  41.3842000000	  51.0629000000	  37.6682000000
N	  40.6864000000	  48.8435000000	  37.8092000000
C	  40.4477000000	  48.7686000000	  36.3505000000
C	  40.4727000000	  47.6392000000	  38.5341000000
C	  41.1695000000	  50.0097000000	  38.2820000000
H	  41.3877000000	  48.5679000000	  35.8206000000
H	  39.6660000000	  48.0486000000	  36.1078000000
H	  40.0809000000	  49.7236000000	  35.9849000000
H	  40.3736000000	  46.8258000000	  37.7972000000
H	  41.3410000000	  47.5117000000	  39.1897000000
H	  39.5504000000	  47.6919000000	  39.1122000000
H	  41.4523000000	  49.9229000000	  39.3408000000
O	  43.9536000000	  51.9915000000	  37.5161000000
N	  44.7385000000	  50.8982000000	  35.6716000000
C	  45.7517000000	  50.0206000000	  35.1641000000
C	  43.9421000000	  51.5959000000	  34.6855000000
C	  44.7168000000	  51.1488000000	  37.0280000000
H	  45.6959000000	  49.7421000000	  34.1208000000
H	  46.7598000000	  50.4206000000	  35.3384000000
H	  45.5760000000	  49.1222000000	  35.7967000000
H	  44.2426000000	  51.3788000000	  33.6752000000
H	  42.9521000000	  51.4040000000	  34.9244000000
H	  44.1158000000	  52.6766000000	  34.7290000000
H	  45.2613000000	  50.3529000000	  37.5821000000
S	  41.1190000000	  59.2687000000	  27.4207000000
S	  40.8724000000	  57.6111000000	  28.5975000000
S	  42.8499000000	  56.8664000000	  29.0328000000
S	  43.8995000000	  55.1096000000	  33.8363000000
S	  42.8133000000	  55.6481000000	  35.5733000000
S	  41.5993000000	  54.1781000000	  36.3758000000
S	  42.8089000000	  55.4875000000	  32.1316000000
S	  43.3710000000	  57.1503000000	  31.0303000000
S	  41.8093000000	  53.2415000000	  40.0536000000
S	  40.1712000000	  52.3090000000	  41.0956000000
S	  40.7039000000	  50.4655000000	  41.8133000000
S	  39.1928000000	  49.4566000000	  46.0410000000
S	  37.5055000000	  48.4702000000	  44.9823000000
S	  35.7853000000	  48.5603000000	  46.3354000000
S	  39.6686000000	  51.2167000000	  45.0428000000
S	  41.3598000000	  50.7988000000	  43.8204000000
