55

Li	  17.1034000000	  41.3997000000	  50.3457000000
O	  18.7066000000	  41.1692000000	  49.5142000000
N	  20.3963000000	  42.6426000000	  49.9987000000
C	  19.8712000000	  42.9256000000	  51.3186000000
C	  21.5462000000	  43.3875000000	  49.5932000000
C	  19.8246000000	  41.7349000000	  49.2539000000
H	  19.4143000000	  41.9965000000	  51.7891000000
H	  20.6823000000	  43.3326000000	  52.0020000000
H	  19.0695000000	  43.6156000000	  51.2713000000
H	  21.2568000000	  44.1533000000	  48.9033000000
H	  22.0122000000	  43.9421000000	  50.3607000000
H	  22.3057000000	  42.7977000000	  49.0916000000
H	  20.3528000000	  41.5369000000	  48.3099000000
O	  17.2784000000	  40.8892000000	  52.1137000000
N	  18.2449000000	  40.5785000000	  54.1648000000
C	  18.6384000000	  39.6981000000	  55.2152000000
C	  18.4159000000	  42.0782000000	  54.3922000000
C	  17.7407000000	  40.1516000000	  52.9802000000
H	  19.0756000000	  40.2325000000	  56.0484000000
H	  17.7710000000	  39.1562000000	  55.5727000000
H	  19.3748000000	  38.9801000000	  54.8589000000
H	  19.4939000000	  42.3628000000	  54.3042000000
H	  17.6858000000	  42.6076000000	  53.8099000000
H	  18.1089000000	  42.2519000000	  55.4049000000
H	  17.8031000000	  39.0945000000	  52.8261000000
N	  16.7040000000	  38.9671000000	  48.7912000000
S	  15.3173000000	  39.6676000000	  48.8814000000
O	  14.2202000000	  38.7319000000	  48.8746000000
O	  15.3681000000	  40.7374000000	  49.8365000000
C	  15.1823000000	  40.5390000000	  47.2844000000
F	  16.0943000000	  41.4398000000	  47.1624000000
F	  14.0247000000	  41.1566000000	  47.2222000000
F	  15.1696000000	  39.7054000000	  46.2278000000
S	  17.2059000000	  37.9385000000	  49.8462000000
O	  16.2810000000	  37.5276000000	  50.8365000000
O	  18.5614000000	  38.1005000000	  50.1954000000
C	  17.2281000000	  36.4220000000	  48.8356000000
F	  18.1371000000	  36.5485000000	  47.8953000000
F	  17.4613000000	  35.3169000000	  49.5007000000
F	  16.0513000000	  36.3149000000	  48.1876000000
N	  17.9753000000	  45.6313000000	  49.8760000000
S	  16.5884000000	  44.8832000000	  49.8224000000
O	  16.5448000000	  43.5537000000	  50.3789000000
O	  15.4958000000	  45.7297000000	  50.1770000000
C	  16.4439000000	  44.5926000000	  48.0617000000
F	  16.6241000000	  45.7067000000	  47.4830000000
F	  15.3857000000	  43.9953000000	  47.6797000000
F	  17.5507000000	  43.9606000000	  47.6353000000
S	  18.1952000000	  47.1360000000	  50.1199000000
O	  17.6896000000	  47.7571000000	  51.3683000000
O	  18.1675000000	  47.8966000000	  48.8600000000
C	  20.0207000000	  47.1231000000	  50.5205000000
F	  20.7510000000	  46.4613000000	  49.5820000000
F	  20.4187000000	  48.3175000000	  50.5979000000
F	  20.2051000000	  46.5531000000	  51.6957000000
