51

Li	  45.4458000000	  58.3274000000	  45.2850000000
O	  46.3315000000	  58.0347000000	  46.8619000000
O	  47.1733000000	  58.7951000000	  48.7652000000
C	  47.6754000000	  57.6153000000	  46.7982000000
C	  48.2600000000	  58.5080000000	  47.9036000000
C	  46.0507000000	  58.1775000000	  48.2143000000
H	  47.8406000000	  56.6773000000	  47.0947000000
H	  48.0164000000	  57.8722000000	  45.8688000000
H	  49.0941000000	  58.0612000000	  48.4394000000
H	  48.5647000000	  59.4381010327	  47.5443000000
H	  45.2595000000	  58.8232000000	  48.4980000000
H	  45.9406000000	  57.1543000000	  48.5632000000
O	  46.5310000000	  59.4751950327	  44.3787000000
N	  48.1863000000	  59.6905640327	  42.7833000000
C	  48.7193000000	  59.2305000000	  41.4457000000
C	  49.1184000000	  60.2669890327	  43.6905000000
C	  46.9745000000	  59.2512000000	  43.1957000000
H	  49.7773000000	  58.9693000000	  41.6245000000
H	  48.1592000000	  58.4352000000	  40.9384000000
H	  48.6356000000	  60.0604390327	  40.6873000000
H	  49.3622000000	  59.6089890327	  44.5184000000
H	  50.0369000000	  60.5327190327	  43.1727000000
H	  48.7089000000	  61.1513490327	  44.1570000000
H	  46.3928000000	  58.8737000000	  42.3799000000
O	  45.5935000000	  56.4409000000	  44.4989000000
N	  45.9732000000	  54.7666000000	  42.9897000000
C	  47.0316000000	  55.4679000000	  42.2384000000
C	  45.6117000000	  53.4200000000	  42.6511000000
C	  45.3462000000	  55.3592000000	  44.0335000000
H	  47.0251000000	  55.1765000000	  41.1882000000
H	  46.7873000000	  56.5270000000	  42.3378000000
H	  47.9926000000	  55.2580000000	  42.7151000000
H	  46.1419000000	  52.7544000000	  43.2812000000
H	  44.6073000000	  53.2726000000	  42.7674000000
H	  45.7816000000	  53.2872000000	  41.5826000000
H	  44.4489000000	  54.7196000000	  44.4142000000
N	  42.7228000000	  58.6472000000	  43.2244000000
S	  42.4968000000	  57.4701000000	  42.1720000000
O	  43.8098000000	  57.0353000000	  41.8021000000
O	  41.5429000000	  56.4773000000	  42.5701000000
C	  41.8162000000	  58.2756000000	  40.7200000000
F	  42.5977000000	  59.2932000000	  40.1656000000
F	  40.6433000000	  58.8999000000	  40.9447000000
F	  41.6542000000	  57.3536000000	  39.8072000000
S	  42.3360000000	  58.7239000000	  44.7507000000
O	  43.4937000000	  58.3275000000	  45.5934000000
O	  41.0260000000	  58.1689000000	  44.9707000000
C	  42.1353000000	  60.5442390327	  44.9944000000
F	  41.4731000000	  61.0648090327	  43.9805000000
F	  41.4683000000	  60.8030490327	  46.1178000000
F	  43.2977000000	  61.1616190327	  45.1088000000
