21

Li	  29.8211000000	  40.4686000000	   8.6837000000
O	  30.4100000000	  38.5818000000	   8.6511300000
N	  30.4317000000	  36.3550000000	   9.2973600000
C	  30.9830000000	  34.9889000000	   9.2029700000
C	  29.2324000000	  36.3497000000	  10.1612000000
C	  30.8540000000	  37.4550000000	   8.5848300000
H	  30.1378000000	  34.2406000000	   9.3177000000
H	  31.4743000000	  34.6931000000	   8.2796700000
H	  31.6967000000	  34.8657000000	   9.9848000000
H	  29.0139000000	  37.1855000000	  10.8229000000
H	  28.3181000000	  36.3875000000	   9.5187300000
H	  29.0647000000	  35.3936000000	  10.6966000000
H	  31.6733000000	  37.1283000000	   7.8353300000
S	  28.8813000000	  37.7240000000	   3.9566100000
S	  27.2142000000	  38.6239000000	   4.8745400000
S	  26.9456000000	  37.8150000000	   6.7414300000
S	  28.0480000000	  41.4552000000	  10.1871000000
S	  30.1109000000	  41.6026000000	  10.6481000000
S	  31.3844000000	  42.2519000000	   9.0914100000
S	  27.4655000000	  39.4629000000	   9.8450200000
S	  26.2237000000	  39.3150000000	   8.0751500000
