42

Li	  30.1993000000	  19.2226000000	  55.5120000000
O	  26.1029000000	  20.0138000000	  54.2991000000
O	  28.2130000000	  19.7380000000	  55.2900000000
C	  26.1235000000	  18.8164000000	  55.0952000000
C	  27.2978000000	  18.9321000000	  56.0718000000
C	  27.2966000000	  20.6520000000	  54.7145000000
H	  25.2318000000	  18.5638000000	  55.5961000000
H	  26.5648000000	  17.9613000000	  54.5697000000
H	  27.0296000000	  19.3897000000	  57.0555000000
H	  27.7384000000	  17.9577000000	  56.2039000000
H	  27.8892000000	  21.2934000000	  54.0643000000
H	  27.0359000000	  21.3655000000	  55.4708000000
O	  33.2372000000	  21.7172000000	  55.1573000000
O	  31.3887000000	  20.5699000000	  54.7980000000
C	  33.7507000000	  20.4136000000	  54.8852000000
C	  32.4332000000	  19.6330000000	  54.6679000000
C	  32.0251000000	  21.7989000000	  54.5313000000
H	  34.3621000000	  20.4089000000	  53.9611000000
H	  34.2536000000	  19.9789000000	  55.7822000000
H	  32.4460000000	  19.1683000000	  53.7263000000
H	  32.3858000000	  18.8937000000	  55.4559000000
H	  31.3645000000	  22.5774000000	  54.8861000000
H	  32.2809000000	  21.9860000000	  53.4852000000
O	  31.6329000000	  19.8814000000	  59.0535000000
O	  30.1410000000	  19.8240000000	  57.2955000000
C	  31.2629000000	  21.2682000000	  58.7049000000
C	  30.0580000000	  21.1638000000	  57.7071000000
C	  30.6828000000	  19.1521000000	  58.4254000000
H	  30.9576000000	  21.7448000000	  59.6226789160
H	  32.1629000000	  21.8484000000	  58.2878000000
H	  29.1645000000	  21.4199000000	  58.2709000000
H	  30.2118000000	  21.9343000000	  56.8912000000
H	  31.0293000000	  18.1503000000	  58.1057000000
H	  29.7876000000	  18.8889000000	  59.0146000000
S	  25.3037000000	  15.3651000000	  48.7443000000
S	  26.5167000000	  13.5662000000	  48.7892000000
S	  28.0264000000	  13.6860000000	  50.3036000000
S	  29.1272000000	  13.6643000000	  54.5949000000
S	  30.0592000000	  15.4941000000	  53.9714000000
S	  30.4067000000	  17.0680000000	  55.4592000000
S	  27.2273000000	  13.6718000000	  53.6814000000
S	  27.3642000000	  12.5726000000	  51.8942000000
