48

Li	  31.9450000000	  54.0299000000	  39.3053000000
O	  33.1011000000	  54.4649000000	  37.8696000000
N	  33.3655000000	  53.7722000000	  35.7271000000
C	  33.6497000000	  54.1601000000	  34.3234000000
C	  32.5372000000	  52.6246000000	  35.9702000000
C	  33.6419000000	  54.6331000000	  36.7257000000
H	  34.7156000000	  54.3245000000	  34.2681000000
H	  33.5250000000	  53.3673000000	  33.5474000000
H	  33.1424000000	  55.1085000000	  34.0153000000
H	  31.4667000000	  52.8683000000	  36.0741000000
H	  32.6015000000	  51.8658000000	  35.1391000000
H	  32.7846000000	  52.0837000000	  36.8870000000
H	  34.3067000000	  55.4893000000	  36.4795000000
O	  32.7274000000	  55.0898000000	  40.7262000000
N	  32.8874000000	  57.2968000000	  40.8991000000
C	  32.4800000000	  58.4828000000	  41.6916000000
C	  33.9261000000	  57.4718000000	  39.9187000000
C	  32.3686000000	  56.1288000000	  41.2549000000
H	  31.4103000000	  58.3016000000	  41.9787000000
H	  33.0432000000	  58.6444000000	  42.5773000000
H	  32.5620000000	  59.3529000000	  41.0945000000
H	  33.6082000000	  57.2304000000	  38.8388000000
H	  34.3002000000	  58.5115000000	  39.8786000000
H	  34.7890000000	  56.8355000000	  40.2175000000
H	  31.6191000000	  56.1961000000	  42.0773000000
N	  28.0778000000	  55.3988000000	  38.6391000000
S	  29.1422000000	  54.5384000000	  37.8224000000
O	  28.9136000000	  54.6465000000	  36.4069000000
O	  30.5142000000	  54.6331000000	  38.1584000000
C	  28.6937000000	  52.8078000000	  38.3073000000
F	  28.6535000000	  52.7955000000	  39.6242000000
F	  29.6788000000	  51.9508000000	  38.0447000000
F	  27.5310000000	  52.3296000000	  37.8476000000
S	  28.3125000000	  56.6502000000	  39.6417000000
O	  27.1787000000	  57.4884000000	  39.7523000000
O	  29.5815000000	  57.2916000000	  39.4352000000
C	  28.4529000000	  55.7497000000	  41.2013000000
F	  27.3639000000	  55.0480000000	  41.5835000000
F	  29.3902000000	  54.8610000000	  41.1172000000
F	  28.7878000000	  56.6057000000	  42.2156000000
S	  31.7269000000	  52.3496000000	  40.5157000000
S	  33.3854000000	  51.6392000000	  39.5084000000
S	  32.9697000000	  49.6997000000	  38.7485000000
S	  36.9529000000	  47.2760000000	  40.3733000000
S	  37.6048000000	  45.5050000000	  41.2213000000
S	  37.0644000000	  45.6578000000	  43.2566000000
S	  35.2898000000	  47.1303000000	  39.0613000000
S	  33.5599000000	  48.0854000000	  39.8694000000
