45

Li	   1.2938700000	  23.1922000000	  51.6344000000
O	   2.9663500000	  24.3644000000	  51.8726000000
N	   4.1204000000	  25.3785000000	  53.5081000000
C	   2.9910700000	  25.3439000000	  54.3791000000
C	   5.4252500000	  25.9303000000	  53.9756000000
C	   3.9930400000	  24.8849000000	  52.3121000000
H	   2.2833500000	  24.5615000000	  54.2320000000
H	   3.2833500000	  25.4207000000	  55.5070000000
H	   2.3541000000	  26.1979000000	  54.2744000000
H	   5.4337400000	  26.3110000000	  55.0334000000
H	   6.0336800000	  25.0407000000	  53.9359000000
H	   6.0033100000	  26.6977000000	  53.5225000000
H	   4.8686000000	  25.1364000000	  51.7153000000
O	   1.8293400000	  21.8325000000	  52.7658000000
N	   3.9615800000	  21.0622000000	  53.2847000000
C	   4.9801500000	  20.8256000000	  54.3145000000
C	   4.3156500000	  20.5731000000	  51.9966000000
C	   2.6895200000	  21.4887000000	  53.5491000000
H	   4.7457600000	  21.4518000000	  55.2431000000
H	   4.9946400000	  19.8000000000	  54.6522000000
H	   5.9897900000	  21.0705000000	  53.9067000000
H	   5.2059300000	  19.9322000000	  51.9752000000
H	   3.4306800000	  19.9671000000	  51.7256000000
H	   4.3976300000	  21.3444000000	  51.2189000000
H	   2.4745300000	  21.4095000000	  54.6435000000
O	   1.6683600000	  22.7318000000	  49.6936000000
N	   3.0343000000	  23.3142000000	  47.9766000000
C	   4.2480800000	  23.2788000000	  48.8327000000
C	   3.1475200000	  23.7641000000	  46.5946000000
C	   1.8278400000	  22.9985000000	  48.5060000000
H	   5.1585200000	  23.4693000000	  48.2377000000
H	   4.3474200000	  24.1387000000	  49.4254000000
H	   4.3887200000	  22.4738000000	  49.5260000000
H	   2.3239000000	  24.4292000000	  46.3872000000
H	   4.0800300000	  24.1827000000	  46.4560000000
H	   3.0072300000	  22.8793000000	  45.9354000000
H	   1.0598700000	  23.0123000000	  47.7105000000
S	  -0.6295071261	  24.1836000000	  52.0358000000
S	  -1.5325071261	  23.6126000000	  53.7985000000
S	  -0.5196071261	  24.2445000000	  55.5435000000
S	  -0.3431071261	  20.5748000000	  59.3985849160
S	  -1.8542071261	  19.6487000000	  60.5831639160
S	  -2.0915071261	  17.6598000000	  60.1641339160
S	  -1.1112071261	  22.1578000000	  58.2967000000
S	   0.0762928739	  22.6851000000	  56.6828000000
