52

Li	   1.6047800000	  18.1517000000	  44.6184000000
O	  -0.1856071261	  18.0199000000	  45.4276000000
N	  -2.2547071261	  17.4642000000	  44.6212000000
C	  -3.5395071261	  18.0342000000	  44.3174000000
C	  -1.8527071261	  16.0272000000	  44.4546000000
C	  -1.3026071261	  18.3356000000	  45.0237000000
H	  -3.7200071261	  18.2529000000	  43.2526000000
H	  -4.4787071261	  17.5391000000	  44.7065000000
H	  -3.6315071261	  18.9810000000	  44.8297000000
H	  -1.3151071261	  15.6269000000	  45.3808000000
H	  -2.7492071261	  15.4851000000	  44.3647000000
H	  -1.1998071261	  16.0123000000	  43.5412000000
H	  -1.6671071261	  19.3750000000	  44.9324000000
O	   3.1789500000	  18.5653000000	  45.4030000000
N	   4.3665100000	  18.1988000000	  47.3457000000
C	   3.5193300000	  17.0784000000	  47.7053000000
C	   5.7169400000	  18.4707000000	  47.9750000000
C	   4.1019000000	  18.8781000000	  46.2089000000
H	   2.9726200000	  16.5488000000	  46.9213000000
H	   4.0889300000	  16.4031000000	  48.2892000000
H	   2.7019200000	  17.4950000000	  48.2211000000
H	   6.5470000000	  18.5118000000	  47.2736000000
H	   5.5599800000	  19.4376000000	  48.3989000000
H	   6.0226400000	  17.7629000000	  48.7533000000
H	   4.8170400000	  19.6939000000	  46.0976000000
O	   1.8337200000	  16.1567000000	  44.4163000000
N	   1.1377100000	  13.9620000000	  44.4698000000
C	   1.1512100000	  13.7879000000	  43.0352000000
C	   0.6336928739	  12.7574000000	  45.1235000000
C	   1.4774300000	  15.1236000000	  45.0383000000
H	   2.1283600000	  14.2277000000	  42.7653000000
H	   1.1356800000	  12.7914000000	  42.6111000000
H	   0.3922928739	  14.4897000000	  42.6648000000
H	   1.3034500000	  12.4502000000	  45.9271000000
H	  -0.3295071261	  12.9855000000	  45.5230000000
H	   0.5601928739	  11.9235000000	  44.5324000000
H	   1.4126000000	  15.0208000000	  46.1251000000
N	   2.5887300000	  19.0742000000	  40.3383000000
S	   4.0542100000	  18.5147000000	  40.5028000000
O	   5.0957500000	  19.4908000000	  40.6174000000
O	   4.2506800000	  17.3709000000	  41.3015000000
C	   4.2937300000	  17.8713000000	  38.7620000000
F	   4.8831000000	  18.7184000000	  38.0007000000
F	   3.1693000000	  17.5026000000	  38.1283000000
F	   5.0176500000	  16.8008000000	  38.6447000000
S	   1.4069300000	  18.8235000000	  41.3013000000
O	   0.3598928739	  19.7782000000	  41.1959000000
O	   1.8927700000	  18.4835000000	  42.6827000000
C	   0.7597670000	  17.2781000000	  40.6124000000
F	   1.4326400000	  16.2109000000	  41.0155000000
F	  -0.4917071261	  17.0414000000	  40.9923000000
F	   0.6748928739	  17.2960000000	  39.2718000000
