46

Li	   1.4668400000	  20.1993000000	  11.4789000000
O	   2.9147000000	  21.1864000000	  10.8354000000
O	   4.4383600000	  22.4674000000	  11.8598000000
C	   3.9769800000	  20.3069000000	  11.2546000000
C	   4.7079300000	  21.1159000000	  12.3008000000
C	   3.2954400000	  22.5172000000	  11.0735000000
H	   3.6608800000	  19.2984000000	  11.6468000000
H	   4.8478100000	  20.0367000000	  10.5310000000
H	   4.3451900000	  21.0801000000	  13.3707000000
H	   5.8058500000	  20.9105000000	  12.3075000000
H	   3.5980900000	  23.0563000000	  10.1786000000
H	   2.5334100000	  23.0412000000	  11.5922000000
O	   1.2782600000	  18.8237000000	  10.3628000000
O	   1.5472600000	  17.1285000000	   8.7580100000
C	   0.4146928739	  17.7195000000	  10.7396000000
C	   0.3472928739	  16.8208000000	   9.5021200000
C	   1.9460400000	  18.3717000000	   9.1863600000
H	   0.7199780000	  17.1485000000	  11.5971000000
H	  -0.5828071261	  18.0385000000	  11.0940000000
H	   0.2310928739	  15.7382000000	   9.7264700000
H	  -0.5107071261	  17.2026000000	   8.9006400000
H	   1.6385700000	  19.0933000000	   8.4425200000
H	   2.9837400000	  18.4807000000	   9.3331700000
O	  -0.3267071261	  20.8782000000	  11.4081000000
O	  -2.2278071261	  19.8264000000	  11.5081000000
C	  -1.0161071261	  21.1053000000	  10.1275000000
C	  -2.2580071261	  20.1952000000	  10.1719000000
C	  -1.3911071261	  20.6258000000	  12.2463000000
H	  -1.3792071261	  22.1645000000	  10.0909000000
H	  -0.2845071261	  20.8736000000	   9.3397800000
H	  -3.1420071261	  20.7902000000	   9.8953100000
H	  -2.0486071261	  19.3005000000	   9.6020900000
H	  -1.1481071261	  20.1932000000	  13.2277000000
H	  -1.9697071261	  21.5902000000	  12.3158000000
O	   1.4023200000	  19.8258000000	  13.2672000000
N	   1.7019400000	  21.0166000000	  15.0914000000
C	   2.1296500000	  21.0683000000	  16.4949000000
C	   1.3032100000	  22.2785000000	  14.4939000000
C	   1.6857300000	  19.8270000000	  14.4789000000
H	   3.0079600000	  20.3651000000	  16.6216000000
H	   2.3972700000	  22.0526000000	  16.8118000000
H	   1.2291900000	  20.8132000000	  17.1540000000
H	   0.7261280000	  22.9345000000	  15.1391000000
H	   2.1971800000	  22.7333000000	  14.0644000000
H	   0.7300130000	  22.0947000000	  13.5875000000
H	   1.9203000000	  18.9351000000	  15.0692000000
