46

Li	   1.0321500000	  31.7439000000	  37.3099000000
O	   2.6017000000	  31.3443000000	  38.0494000000
O	   4.0455600000	  29.6507000000	  38.2004000000
C	   3.8118600000	  31.9011000000	  37.5333000000
C	   4.5504000000	  30.5455000000	  37.2147000000
C	   3.0759600000	  30.3741000000	  38.8973000000
H	   3.6539200000	  32.4436000000	  36.5923000000
H	   4.2778000000	  32.5210000000	  38.2731000000
H	   4.2208100000	  30.1906000000	  36.2632000000
H	   5.6199200000	  30.7665000000	  37.2162000000
H	   3.4674000000	  30.8233000000	  39.7725000000
H	   2.2601100000	  29.7242000000	  39.1430000000
O	   2.5900900000	  35.0354000000	  35.9827000000
O	   1.1051800000	  33.5639000000	  36.8639000000
C	   2.3711800000	  35.5581000000	  37.2282000000
C	   1.2728900000	  34.6249000000	  37.7947000000
C	   1.6352000000	  34.0718000000	  35.6891000000
H	   3.3704200000	  35.5056000000	  37.6492000000
H	   2.1063400000	  36.6542000000	  37.1515000000
H	   1.4494700000	  34.2138000000	  38.8153000000
H	   0.3856928739	  35.2709000000	  37.8255000000
H	   0.8942130000	  34.6129000000	  35.1317000000
H	   2.1354000000	  33.2759000000	  35.0520000000
N	  -0.8009071261	  30.6551000000	  40.9539000000
S	  -0.4943071261	  30.0751000000	  39.5662000000
O	   0.1618928739	  31.0144000000	  38.6457000000
O	  -0.0766071261	  28.6576000000	  39.5556000000
C	  -2.0910071261	  29.7527000000	  38.8570000000
F	  -2.7171071261	  28.8256000000	  39.5381000000
F	  -1.9272071261	  29.2550000000	  37.6412000000
F	  -2.8724071261	  30.8356000000	  38.7897000000
S	   0.2733928739	  31.3493000000	  41.8772000000
O	  -0.1207071261	  32.4763000000	  42.6988000000
O	   1.6341100000	  31.3188000000	  41.3470000000
C	   0.4126928739	  30.1840000000	  43.2379000000
F	   0.5773928739	  28.9713000000	  42.7399000000
F	   1.3652700000	  30.3595000000	  44.1079000000
F	  -0.6997071261	  30.2438000000	  44.0081000000
S	   0.4387928739	  30.9419000000	  35.4420000000
S	  -1.6450071261	  31.3244000000	  35.2435000000
S	  -2.1078071261	  33.2886000000	  35.5982000000
S	  -5.3508071261	  36.2744000000	  34.6976000000
S	  -4.8440071261	  36.2284000000	  32.5716000000
S	  -5.7881071261	  37.9837000000	  31.6002000000
S	  -5.5363071261	  34.3289000000	  35.3244000000
S	  -3.9858071261	  33.6399000000	  36.5990000000
