39

Li	  28.4654000000	  46.3711000000	   4.4832300000
O	  27.9008000000	  49.8391000000	   2.3011700000
O	  27.9295000000	  47.7269000000	   3.3620900000
C	  26.5564000000	  49.6484000000	   2.7980900000
C	  26.5892000000	  48.0879000000	   3.0507100000
C	  28.6258000000	  48.6817000000	   2.5910400000
H	  26.4901000000	  50.2182000000	   3.7303500000
H	  25.8448000000	  50.1235000000	   2.1068500000
H	  25.9111000000	  47.7783000000	   3.8349600000
H	  26.1994000000	  47.5047000000	   2.2190600000
H	  29.0826000000	  48.1924000000	   1.7096100000
H	  29.4552000000	  49.0208000000	   3.1913300000
O	  28.2939000000	  47.9261000000	   5.8891000000
O	  28.8850000000	  49.5565000000	   7.4271000000
C	  27.2548000000	  48.0146000000	   6.7674700000
C	  27.4425000000	  49.5163000000	   7.3118200000
C	  29.3333000000	  48.6699000000	   6.4651300000
H	  26.3567000000	  47.8127000000	   6.2708600000
H	  27.1920000000	  47.2873000000	   7.4869700000
H	  27.0170000000	  50.1908000000	   6.5852700000
H	  26.8651000000	  49.7696000000	   8.2365800000
H	  30.1321000000	  47.9856000000	   6.7735900000
H	  29.7895000000	  49.3772000000	   5.7946100000
S	  22.2230000000	  43.7857000000	   3.1440200000
S	  23.9611000000	  45.1239000000	   2.9134200000
S	  24.2634000000	  45.7448000000	   0.9000230000
S	  28.5804000000	  44.4420000000	   1.7705200000
S	  30.4959000000	  45.2224000000	   2.2890100000
S	  30.5955000000	  46.4124000000	   4.1011400000
S	  27.6121000000	  45.4793000000	   0.2472060840
S	  25.7561000000	  44.6414000000	  -0.0150939160
S	  24.2962000000	  43.3877000000	   6.2692700000
S	  24.3157000000	  45.0709000000	   7.5038300000
S	  24.7178000000	  44.4629000000	   9.4705800000
S	  29.3655000000	  45.4731000000	   8.8000800000
S	  29.5140000000	  44.1886000000	   7.1230200000
S	  27.9703000000	  44.7231000000	   5.6103000000
S	  28.1910000000	  44.7616000000	  10.4805000000
S	  26.2555000000	  45.6291000000	  10.3586000000
