32

Li	  32.1924000000	  47.7479000000	   4.8331000000
O	  33.9015000000	  47.4040000000	   4.3441700000
O	  34.9548000000	  46.1067000000	   2.8701900000
C	  34.7839000000	  46.5520000000	   5.0705400000
C	  35.0437000000	  45.4120000000	   4.0964900000
C	  34.4256000000	  47.3190000000	   3.0684200000
H	  35.7408000000	  47.0553000000	   5.3459700000
H	  34.2647000000	  46.2044000000	   5.9483200000
H	  35.9835000000	  44.8449000000	   4.2235200000
H	  34.2241000000	  44.6882000000	   3.9079800000
H	  33.5187000000	  47.3238000000	   2.4323800000
H	  35.1433000000	  48.0646000000	   2.8549300000
O	  31.8659000000	  46.9367000000	   6.6341800000
N	  31.3018000000	  46.7413000000	   8.7810300000
C	  31.3311000000	  46.0138000000	   9.9852100000
C	  30.5726000000	  47.9532000000	   8.7900900000
C	  31.8167000000	  46.2246000000	   7.6061200000
H	  32.2317000000	  45.3785000000	   9.9939400000
H	  31.2953000000	  46.6969000000	  10.8328000000
H	  30.4791000000	  45.4114000000	   9.9042800000
H	  30.8242000000	  48.4835000000	   9.6962000000
H	  31.0454000000	  48.6238000000	   7.9442100000
H	  29.5554000000	  47.8363000000	   8.5785300000
H	  31.9423000000	  45.1080000000	   7.6348100000
S	  31.5556000000	  56.0174000000	  11.4424000000
S	  32.3136000000	  56.0868000000	   9.4783000000
S	  32.1695000000	  54.2278000000	   8.5435600000
S	  30.1194000000	  51.3208000000	   5.6176900000
S	  31.6022000000	  49.9925000000	   4.9514300000
S	  30.8616000000	  48.8810000000	   3.4347800000
S	  30.5310000000	  53.3912000000	   5.4938300000
S	  30.3404000000	  54.2860000000	   7.4085200000
