32

Li	  33.0621000000	  57.7252000000	  33.4436000000
O	  32.2137000000	  59.1189000000	  32.7740000000
O	  31.2175000000	  60.8603890327	  31.9034000000
C	  31.0771000000	  58.6196000000	  32.0882000000
C	  30.8304000000	  59.8202690327	  31.1138000000
C	  32.3421000000	  60.4627290327	  32.5378000000
H	  31.1302000000	  57.6196000000	  31.7024000000
H	  30.2907000000	  58.6269000000	  32.8028000000
H	  31.4227000000	  59.7662490327	  30.2096000000
H	  29.7571000000	  59.7951390327	  30.7982000000
H	  32.5842000000	  60.9096990327	  33.4911000000
H	  33.1632000000	  60.7022590327	  31.7976000000
O	  34.7310000000	  57.5722000000	  32.6479000000
N	  36.0665000000	  58.0759000000	  30.8616000000
C	  37.4863000000	  58.2384000000	  30.3878000000
C	  35.0061000000	  58.6099000000	  30.0538000000
C	  35.8647000000	  57.5765000000	  32.0724000000
H	  37.5930000000	  57.7365000000	  29.4783000000
H	  37.6685000000	  59.3290000000	  30.1472000000
H	  38.2197000000	  57.7693000000	  31.0733000000
H	  34.7838000000	  57.9324000000	  29.2086000000
H	  34.0874000000	  58.7256000000	  30.6327000000
H	  35.1762000000	  59.6456040327	  29.7770000000
H	  36.7020000000	  57.0173000000	  32.5072000000
S	  31.7897000000	  56.4922000000	  34.5881000000
S	  32.9422000000	  54.8190000000	  33.8670000000
S	  34.8839000000	  54.7374000000	  34.6308000000
S	  36.4750000000	  51.6203000000	  38.0193000000
S	  35.8176000000	  50.1379000000	  39.3039000000
S	  34.5904000000	  50.9398000000	  40.8428000000
S	  34.9716000000	  51.8126000000	  36.4756000000
S	  35.5126000000	  52.6749000000	  34.6209000000
