33

Li	  31.9550000000	  16.3041000000	  27.4628000000
O	  32.8194000000	  14.6707000000	  27.3470000000
N	  34.8264000000	  14.1635000000	  26.2932000000
C	  35.6549000000	  13.1000000000	  25.6837000000
C	  35.3728000000	  15.5425000000	  26.0255000000
C	  33.6082000000	  13.8996000000	  26.8041000000
H	  36.7845000000	  13.1058000000	  25.9456000000
H	  35.2506000000	  12.0757000000	  25.9184000000
H	  35.5830000000	  13.2461000000	  24.5849000000
H	  36.4840000000	  15.5360000000	  26.2477000000
H	  35.3038000000	  15.7592000000	  25.0014000000
H	  35.0480000000	  16.2991000000	  26.6417000000
H	  33.4289000000	  12.8169000000	  26.7018000000
O	  33.1909000000	  17.5475000000	  28.1661000000
N	  32.6765000000	  18.8450000000	  30.0035000000
C	  33.1345000000	  19.4499000000	  31.2625000000
C	  31.2551000000	  19.0025000000	  29.6918000000
C	  33.5309000000	  18.1827000000	  29.1654000000
H	  33.1185000000	  18.7285000000	  32.0897000000
H	  34.0895000000	  19.9744000000	  31.0476000000
H	  32.4494000000	  20.2140000000	  31.6124000000
H	  30.6674000000	  18.3342000000	  30.3280000000
H	  30.8265000000	  19.9836000000	  30.0586000000
H	  30.9959000000	  18.6922000000	  28.6763000000
H	  34.5578000000	  18.3089000000	  29.4856000000
S	  32.4542000000	  23.3915000000	  19.1591000000
S	  33.0218000000	  22.4455000000	  20.8967000000
S	  31.6136000000	  20.9540000000	  21.5184000000
S	  32.0009000000	  17.1660000000	  25.2347000000
S	  30.2705000000	  16.3307000000	  25.7625000000
S	  29.9611000000	  16.2987000000	  27.8323000000
S	  31.8190000000	  19.2330000000	  24.6841000000
S	  32.4748000000	  19.4180000000	  22.6841000000
