39

Li	  52.8223000000	  47.9115000000	  27.7400000000
O	  56.6450000000	  46.0103000000	  27.5556000000
O	  54.7522000000	  47.2295000000	  27.8836000000
C	  56.9106000000	  47.0687000000	  28.5044000000
C	  55.8945000000	  48.1092000000	  28.1927000000
C	  55.3011000000	  46.0528000000	  27.3369000000
H	  56.7345000000	  46.7325000000	  29.4919000000
H	  57.9489000000	  47.3195000000	  28.4521000000
H	  55.6196000000	  48.7289000000	  29.0390000000
H	  56.1279000000	  48.7344000000	  27.3332000000
H	  55.0360000000	  45.9466000000	  26.3033000000
H	  54.9619000000	  45.2075000000	  27.9717000000
O	  51.7982000000	  51.6370000000	  26.7323000000
O	  52.7575000000	  49.8005000000	  27.5855000000
C	  53.1858000000	  52.0239000000	  26.9106000000
C	  53.7789000000	  50.6660000000	  27.0870000000
C	  51.6132000000	  50.5148000000	  27.4646000000
H	  53.6839000000	  52.4936000000	  26.0248000000
H	  53.3916000000	  52.7465000000	  27.7221000000
H	  54.1178000000	  50.2296000000	  26.1693000000
H	  54.6571000000	  50.7002000000	  27.7048000000
H	  51.5297000000	  50.7808000000	  28.5145000000
H	  50.7072000000	  50.0282000000	  26.9819000000
S	  52.0835000000	  47.4577000000	  29.6961000000
S	  50.0947000000	  47.5364000000	  29.0933000000
S	  49.1040000000	  48.9143000000	  30.4854000000
S	  50.0013000000	  53.1551000000	  32.6320000000
S	  49.3444000000	  55.0429000000	  32.0490000000
S	  47.2334000000	  54.8767000000	  31.6930000000
S	  50.8118000000	  51.9114000000	  31.0807000000
S	  49.2975000000	  50.9505000000	  30.0047000000
S	  51.9338000000	  42.2469000000	  17.0284000000
S	  51.1193000000	  41.1471000000	  18.8005000000
S	  52.5910000000	  40.6420000000	  20.2874000000
S	  51.6807000000	  44.6567000000	  23.3302000000
S	  51.4793000000	  44.9612000000	  25.3792000000
S	  52.1982000000	  47.0209000000	  25.9546000000
S	  53.0478000000	  43.0662000000	  22.9540000000
S	  52.1348000000	  41.3290000000	  22.2341000000
