31

Li	  30.0966000000	  17.2718000000	   0.7454490000
O	  28.9398000000	  19.6492000000	  -2.1694939160
O	  29.8885000000	  18.6658000000	  -0.4806939160
C	  29.8610000000	  20.6320000000	  -1.7434939160
C	  30.6120000000	  19.8514000000	  -0.5703939160
C	  28.6387000000	  18.9803000000	  -0.9973939160
H	  30.5324000000	  20.8394000000	  -2.5162939160
H	  29.4359000000	  21.5346000000	  -1.3803939160
H	  31.6627000000	  19.6147000000	  -0.8604939160
H	  30.6389000000	  20.4872000000	   0.3420060840
H	  28.0427000000	  19.5871000000	  -0.3208939160
H	  28.0685000000	  18.1174000000	  -1.2154939160
O	  27.0562000000	  14.8129000000	   0.2809060840
O	  28.4667000000	  16.4385000000	   0.9426760000
C	  26.2308000000	  15.7754000000	   0.8838260000
C	  27.2225000000	  16.7207000000	   1.5457500000
C	  28.3041000000	  15.0459000000	   0.8265470000
H	  25.6227000000	  16.0500000000	  -0.0346939160
H	  25.6022000000	  15.2859000000	   1.5794000000
H	  26.9971000000	  17.7685000000	   1.3050500000
H	  27.1876000000	  16.6451000000	   2.6746700000
H	  28.3122000000	  14.5644000000	   1.7782700000
H	  29.1277000000	  14.5150000000	   0.3072060840
S	  27.1849000000	  13.8296000000	  -9.9592939160
S	  27.4326000000	  13.4696000000	  -7.9018939160
S	  27.5747000000	  15.2006000000	  -6.8358939160
S	  30.0930000000	  15.5308000000	  -2.7329939160
S	  31.9162000000	  15.9138000000	  -1.8345939160
S	  31.7715000000	  15.9116000000	   0.3459060840
S	  30.0937000000	  14.2821000000	  -4.4539939160
S	  29.6555000000	  15.2936000000	  -6.2411939160
