29

Li	  28.0478000000	  43.6748000000	   6.9570100000
O	  28.4723000000	  42.2289000000	   8.2495100000
N	  29.3455000000	  41.3106000000	  10.1086000000
C	  29.1921000000	  40.4534000000	  11.3650000000
C	  30.2908000000	  42.3696000000	  10.1748000000
C	  28.4102000000	  41.4261000000	   9.1660300000
H	  28.3424000000	  40.9071000000	  11.9710000000
H	  29.1150000000	  39.3857000000	  11.1416000000
H	  30.0416000000	  40.5944000000	  12.0126000000
H	  30.9793000000	  42.3646000000	   9.3821900000
H	  29.8822000000	  43.3678000000	  10.2440000000
H	  30.9601000000	  42.2814000000	  11.0329000000
H	  27.6467000000	  40.6207000000	   9.2928800000
S	  26.5546000000	  42.7305000000	   5.8542100000
S	  27.6717000000	  43.7262000000	   4.4517200000
S	  26.4240000000	  45.0754000000	   3.5646800000
S	  29.8556000000	  48.1641000000	   3.9262600000
S	  30.7346000000	  49.4053000000	   5.2696700000
S	  30.9303000000	  48.4124000000	   7.1301800000
S	  27.7397000000	  48.3017000000	   3.5618500000
S	  26.5190000000	  46.9626000000	   4.4962100000
S	  23.3491000000	  39.6896000000	   6.1773000000
S	  23.4149000000	  39.8773000000	   8.2750100000
S	  24.8891000000	  41.0962000000	   9.0288500000
S	  26.4912000000	  45.3073000000	   8.2383500000
S	  28.3762000000	  46.1394000000	   8.2872700000
S	  29.7614000000	  44.9405000000	   7.2657600000
S	  26.0157000000	  44.0980000000	   9.8434800000
S	  24.3363000000	  43.0266000000	   9.3245900000
