31

Li	  57.1805000000	   3.2273400000	  13.9193000000
O	  58.6052000000	   6.7263500000	  12.3902000000
O	  57.6839000000	   4.7633400000	  12.7242000000
C	  59.6461869981	   5.7915600000	  12.1947000000
C	  58.8671000000	   4.4632000000	  11.9848000000
C	  57.4229000000	   6.1107200000	  12.4306000000
H	  60.4137069981	   6.0279400000	  11.4472000000
H	  60.1464369981	   5.5117700000	  13.1147000000
H	  58.5816000000	   4.4189500000	  10.9355000000
H	  59.3614549981	   3.6017300000	  12.4097000000
H	  56.8213000000	   6.6445000000	  13.1994000000
H	  56.8983000000	   6.1391400000	  11.4184000000
O	  58.5966000000	   3.2362200000	  15.0531000000
O	  59.8329569981	   1.7390600000	  15.8395000000
C	  58.5124000000	   3.4421400000	  16.4369000000
C	  59.3395439981	   2.3109200000	  17.0129000000
C	  59.8073969981	   2.6645500000	  14.8041000000
H	  58.9570000000	   4.3877200000	  16.6616000000
H	  57.5017000000	   3.5113500000	  16.8512000000
H	  60.2788369981	   2.7077400000	  17.3972000000
H	  58.6694000000	   1.6930300000	  17.6204000000
H	  59.9516269981	   2.0586600000	  13.8706000000
H	  60.5647669981	   3.3346100000	  14.9034000000
S	  48.9006000000	   5.0121100000	  11.2936000000
S	  50.7131000000	   5.6143300000	  10.4402000000
S	  52.3674000000	   4.5540100000	  11.0987000000
S	  55.2001000000	   3.9396100000	  15.1372000000
S	  55.4191000000	   2.0152400000	  14.5857000000
S	  56.2986000000	   1.8822100000	  12.5799000000
S	  53.4266000000	   4.7487600000	  14.3284000000
S	  53.6379000000	   5.6141200000	  12.4499000000
