83

Li	  44.9927000000	  46.0967000000	   3.3317500000
O	  43.0242000000	  49.0408000000	   0.3906123988
O	  43.6905000000	  47.8117000000	   2.1484700000
C	  42.4601000000	  47.8100000000	   0.1602123988
C	  43.1332000000	  46.9039000000	   1.2212300000
C	  43.3620000000	  49.0851000000	   1.7093800000
H	  41.4089000000	  47.9244000000	   0.3931123988
H	  42.4747000000	  47.6105000000	  -0.9031876012
H	  42.2459000000	  46.3558000000	   1.5590300000
H	  43.9349000000	  46.2466000000	   0.9485290000
H	  44.2094000000	  49.8100000000	   1.8884200000
H	  42.4626000000	  49.4252000000	   2.2155800000
O	  43.2937000000	  46.0414000000	   4.2561200000
O	  41.7511000000	  46.2514000000	   5.8115100000
C	  42.6801000000	  44.7295000000	   4.3719500000
C	  41.4726000000	  45.0142000000	   5.2616400000
C	  42.4371000000	  46.9506000000	   4.8646900000
H	  42.4469000000	  44.3835000000	   3.4013600000
H	  43.3728000000	  44.0197000000	   4.7760500000
H	  40.5553000000	  44.9068000000	   4.6647200000
H	  41.4736000000	  44.3113000000	   6.1577500000
H	  43.0989000000	  47.7232000000	   5.2508200000
H	  41.6773000000	  47.2732000000	   4.0913100000
N	  47.8860000000	  44.0609000000	   5.9687400000
S	  46.8076000000	  43.5969000000	   6.9918600000
O	  46.4646000000	  44.4688000000	   8.1018000000
O	  45.8673000000	  42.6669000000	   6.4349000000
C	  47.7787000000	  42.2777000000	   7.8173600000
F	  46.9942000000	  41.4932000000	   8.5016700000
F	  48.7170000000	  42.6900000000	   8.7039500000
F	  48.2772000000	  41.4711000000	   6.9276800000
S	  47.6553000000	  44.7703000000	   4.5973800000
O	  48.5839000000	  45.8062000000	   4.3232600000
O	  46.2846000000	  45.0450000000	   4.3185100000
C	  48.0175000000	  43.3818000000	   3.5617700000
F	  47.9979000000	  43.6084000000	   2.2742700000
F	  49.1652000000	  42.7810000000	   3.8506600000
F	  47.1562000000	  42.4154000000	   3.6999600000
N	  46.7564000000	  48.3232000000	   6.3094700000
S	  46.8630000000	  48.6176000000	   4.7814800000
O	  48.2053000000	  48.8341000000	   4.2230100000
O	  45.9613000000	  47.8346000000	   4.0336800000
C	  46.0940000000	  50.2554000000	   4.6379500000
F	  46.0868000000	  50.7268000000	   3.4339900000
F	  46.5935000000	  51.1521000000	   5.4592500000
F	  44.7610000000	  50.2189000000	   4.9733000000
S	  47.9169000000	  47.9164000000	   7.3229200000
O	  49.2068000000	  47.5442000000	   6.7316900000
O	  47.4376000000	  47.2014000000	   8.5023800000
C	  48.3805000000	  49.5294000000	   8.0046200000
F	  47.3988000000	  49.9302000000	   8.7216900000
F	  49.4763000000	  49.5301000000	   8.7792600000
F	  48.6498000000	  50.4676000000	   7.1487700000
N	  43.2783000000	  41.7829000000	   1.8273200000
S	  44.3972000000	  42.8039000000	   1.2637700000
O	  44.5251000000	  44.0162000000	   2.1096900000
O	  45.6117000000	  42.2087000000	   0.7505123988
C	  43.5879000000	  43.4231000000	  -0.2348876012
F	  43.4685000000	  42.4868000000	  -1.2025876012
F	  44.3058000000	  44.4527000000	  -0.7029876012
F	  42.3669000000	  43.8941000000	   0.0008123988
S	  42.9635000000	  40.3017000000	   1.3906300000
O	  42.9477000000	  39.4263000000	   2.5276300000
O	  43.6339000000	  39.8031000000	   0.2510123988
C	  41.1647000000	  40.3060000000	   0.8351500000
F	  40.3463000000	  40.7110000000	   1.7920300000
F	  40.8834000000	  41.1441000000	  -0.1979876012
F	  40.7538000000	  39.0695000000	   0.5028123988
N	  48.3872000000	  47.5387000000	   1.6917700000
S	  49.9373000000	  47.3445000000	   1.6965900000
O	  50.4905000000	  47.0726000000	   3.0075000000
O	  50.4380000000	  46.5230000000	   0.6224123988
C	  50.5707000000	  49.0001000000	   1.2749300000
F	  51.8873000000	  49.1403000000	   1.3892000000
F	  50.1293000000	  49.9264000000	   2.1349200000
F	  50.1629000000	  49.3244000000	   0.0480123988
S	  47.2876000000	  46.7216000000	   0.9081970000
O	  46.2629000000	  46.3431000000	   1.8678700000
O	  47.9090000000	  45.7709000000	  -0.0141876012
C	  46.4065000000	  47.9518000000	  -0.1216876012
F	  47.0717000000	  48.3049000000	  -1.1700876012
F	  45.3068000000	  47.4457000000	  -0.7048876012
F	  46.0681000000	  49.1159000000	   0.5043123988
