65

Li	  47.3829000000	  48.8246000000	  43.4495000000
O	  49.1929000000	  47.6735000000	  42.8946000000
O	  50.0397000000	  46.8849000000	  40.9955000000
C	  50.4937000000	  47.3476000000	  43.2673000000
C	  51.1278000000	  46.9962000000	  41.8851000000
C	  48.9262000000	  46.8281000000	  41.7868000000
H	  50.9860000000	  48.1532000000	  43.7891000000
H	  50.3484000000	  46.4684000000	  43.8584000000
H	  51.7075000000	  47.8904000000	  41.5764000000
H	  51.8503000000	  46.2189000000	  41.9906000000
H	  48.8683000000	  45.8625000000	  42.1715000000
H	  48.0058000000	  47.0675000000	  41.2652000000
N	  50.1612000000	  50.1126000000	  41.1616000000
S	  50.6066000000	  50.3743000000	  39.7095000000
O	  50.8102000000	  49.0915000000	  39.0372000000
O	  50.0207000000	  51.4941000000	  39.0081000000
C	  52.3688000000	  50.9158000000	  39.9685000000
F	  53.0711000000	  50.6712000000	  38.8881000000
F	  52.9878000000	  50.4519000000	  41.0738000000
F	  52.3160000000	  52.2576000000	  40.0382000000
S	  49.3040000000	  51.0178000000	  42.0436000000
O	  48.3306000000	  50.3293000000	  42.8378000000
O	  48.8680000000	  52.2710000000	  41.4060000000
C	  50.5732000000	  51.5634000000	  43.2882000000
F	  50.8489000000	  50.6560000000	  44.1535000000
F	  51.7273000000	  51.8772000000	  42.7850000000
F	  50.1414000000	  52.5869000000	  43.9313000000
N	  44.9539000000	  50.9139000000	  46.4577000000
S	  43.8059000000	  50.8692000000	  45.3783000000
O	  44.2131000000	  50.7049000000	  43.9863000000
O	  42.6942000000	  50.0697000000	  45.7811000000
C	  43.2031000000	  52.5817000000	  45.5520000000
F	  44.1462000000	  53.5217000000	  45.3893000000
F	  42.5388000000	  52.7104000000	  46.7049000000
F	  42.4132000000	  52.8404000000	  44.5949000000
S	  46.4493000000	  50.3609000000	  46.4043000000
O	  46.8763000000	  49.7667000000	  45.1380000000
O	  46.8578000000	  49.7371000000	  47.6467000000
C	  47.4012000000	  51.8501000000	  46.4959000000
F	  47.0096000000	  52.6572000000	  47.3888000000
F	  48.6506000000	  51.5803000000	  46.7461000000
F	  47.5026000000	  52.5003000000	  45.3528000000
N	  45.4589000000	  46.7954000000	  46.1121000000
S	  43.9993000000	  46.4166000000	  46.3227000000
O	  43.0763000000	  47.5215000000	  46.5388000000
O	  43.5574000000	  45.3499000000	  45.4387000000
C	  44.0820000000	  45.6628000000	  47.9809000000
F	  44.8427000000	  44.5915000000	  47.9849000000
F	  42.8547000000	  45.2864000000	  48.4035000000
F	  44.4789000000	  46.4458000000	  48.8994000000
S	  46.5453000000	  46.0637000000	  45.2997000000
O	  47.0835000000	  46.9025000000	  44.2805000000
O	  46.4032000000	  44.6472000000	  45.0229000000
C	  47.9569000000	  46.0103000000	  46.5041000000
F	  48.9651000000	  45.3401000000	  46.0414000000
F	  48.3779000000	  47.2311000000	  46.7443000000
F	  47.7229000000	  45.3519000000	  47.6321000000
S	  45.5852000000	  48.8383000000	  42.0988000000
S	  46.3647000000	  49.5932000000	  40.2771000000
S	  46.0922000000	  48.0593000000	  38.8260000000
S	  48.1992000000	  43.3072000000	  37.7636000000
S	  50.1270000000	  42.5951000000	  37.8717000000
S	  50.1650000000	  40.7385000000	  39.0645000000
S	  47.8775000000	  44.8809000000	  39.0636000000
S	  47.8961000000	  46.9030000000	  38.3861000000
