49

Li	  35.3942000000	  26.5866000000	  44.1698000000
O	  36.5130000000	  24.8538000000	  44.5374000000
O	  36.2282000000	  22.6780000000	  44.1818000000
C	  37.6432000000	  24.3794000000	  43.7939000000
C	  37.6228000000	  22.9069000000	  43.9666000000
C	  35.7902000000	  23.7432000000	  44.9125000000
H	  37.6052000000	  24.5898000000	  42.7009000000
H	  38.6099000000	  24.7283000000	  44.1448000000
H	  37.9358000000	  22.3852000000	  43.0790000000
H	  38.1091000000	  22.5564000000	  44.8072000000
H	  35.9954000000	  23.6172000000	  45.9847000000
H	  34.7121000000	  23.9437000000	  44.8251000000
O	  38.9183000000	  27.7218000000	  42.4978000000
O	  36.8969000000	  27.1967000000	  43.3177000000
C	  38.0603000000	  28.0873000000	  41.4270000000
C	  36.7928000000	  27.3735000000	  41.9194000000
C	  38.1181000000	  27.8343000000	  43.6275000000
H	  37.8358000000	  29.1861000000	  41.3234000000
H	  38.4570000000	  27.6837000000	  40.4546000000
H	  35.9604000000	  28.0830000000	  41.7389000000
H	  36.6447000000	  26.4511000000	  41.3085000000
H	  38.5889000000	  27.3320000000	  44.4396000000
H	  38.0531000000	  28.9248000000	  43.8485000000
O	  33.8163000000	  26.6724000000	  43.1502000000
O	  32.7187000000	  24.7234000000	  43.1595000000
C	  32.6524000000	  26.9408000000	  43.8566000000
C	  32.2374000000	  25.4806000000	  44.2252000000
C	  33.5472000000	  25.4969000000	  42.4461000000
H	  32.8218000000	  27.6089000000	  44.7290000000
H	  31.9048000000	  27.4015000000	  43.2005000000
H	  32.6265000000	  25.0803000000	  45.1614000000
H	  31.1428000000	  25.5399000000	  44.3381000000
H	  33.0085000000	  25.7223000000	  41.5303000000
H	  34.4307000000	  24.9538000000	  42.2079000000
N	  37.0472000000	  28.4857000000	  47.2320000000
S	  37.5024000000	  29.9405000000	  47.4942000000
O	  38.0682000000	  30.5179000000	  46.2708000000
O	  36.4750000000	  30.7010000000	  48.1865000000
C	  38.8818000000	  29.7188000000	  48.6634000000
F	  39.7635000000	  28.8754000000	  48.2158000000
F	  38.4443000000	  29.1809000000	  49.7414000000
F	  39.4343000000	  30.8515000000	  48.8792000000
S	  35.6062000000	  27.8299000000	  47.2068000000
O	  35.3923000000	  27.2162000000	  45.9066000000
O	  34.5880000000	  28.6180000000	  47.8187000000
C	  35.8341000000	  26.5135000000	  48.4050000000
F	  34.6856000000	  26.0181000000	  48.8920000000
F	  36.4478000000	  25.4251000000	  47.8770000000
F	  36.5564000000	  26.8734000000	  49.4310000000
