64

Li	  58.1637000000	  57.3854000000	  39.4135000000
O	  57.6446000000	  59.9150875201	  35.9636000000
O	  58.4487000000	  58.5005000000	  37.4712000000
C	  57.5066000000	  58.6913000000	  35.3297000000
C	  58.4215000000	  57.8074000000	  36.2306000000
C	  57.5874000000	  59.5182075201	  37.2916000000
H	  56.4990000000	  58.3044000000	  35.3388000000
H	  57.8192000000	  58.7026000000	  34.3582000000
H	  58.0185000000	  56.7857000000	  36.3569000000
H	  59.4441399981	  57.7133000000	  35.8579000000
H	  57.8499000000	  60.3462675201	  37.9548000000
H	  56.6047000000	  59.1881000000	  37.5662000000
O	  61.0626769981	  54.5527000000	  38.1492000000
O	  59.3569409981	  55.9665000000	  38.6439000000
C	  59.9292769981	  54.1244000000	  37.4101000000
C	  58.8222000000	  54.7690000000	  38.1470000000
C	  60.7147769981	  55.8146000000	  38.5611000000
H	  59.9533869981	  54.5419000000	  36.3473000000
H	  59.7995269981	  53.0695000000	  37.3189000000
H	  57.9963000000	  54.8709000000	  37.3745000000
H	  58.4308000000	  54.2006000000	  39.0415000000
H	  61.0620669981	  55.9358000000	  39.5639000000
H	  61.1357969981	  56.4812000000	  37.8624000000
O	  58.0702000000	  56.3401000000	  41.0647000000
O	  58.0948000000	  56.5641000000	  43.2712000000
C	  58.7453000000	  55.1834000000	  41.6582000000
C	  59.2643000000	  55.8150000000	  42.9208000000
C	  57.4272000000	  56.9885000000	  42.1508000000
H	  58.1094000000	  54.3279000000	  41.9055000000
H	  59.5153569981	  54.9245000000	  40.9755000000
H	  59.5591569981	  55.0639000000	  43.6535000000
H	  60.1470669981	  56.3960000000	  42.6153000000
H	  57.4563000000	  58.0884000000	  42.0026000000
H	  56.4334000000	  56.7335000000	  42.2099000000
N	  60.0821069981	  59.2476765201	  42.5638000000
S	  60.2368269981	  59.4599675201	  40.9782000000
O	  59.3131719981	  58.5965000000	  40.2320000000
O	  60.3268169981	  60.8418275201	  40.6223000000
C	  61.8977069981	  58.6531000000	  40.6282000000
F	  61.9883669981	  58.4564000000	  39.3139000000
F	  62.0293569981	  57.5174000000	  41.1843000000
F	  62.9325569981	  59.3500055201	  41.0802000000
S	  60.0042969981	  60.2552375201	  43.7423000000
O	  58.7064000000	  60.2420275201	  44.2823000000
O	  60.5444969981	  61.5576775201	  43.4392000000
C	  61.1513469981	  59.5201575201	  45.0021000000
F	  62.3649569981	  59.2719445201	  44.4798000000
F	  61.2500669981	  60.3993975201	  45.9894000000
F	  60.7680169981	  58.3717000000	  45.5137000000
N	  54.1913000000	  57.7856000000	  39.3341000000
S	  54.6643000000	  59.2247555201	  39.6957000000
O	  55.9652000000	  59.3099775201	  40.3230000000
O	  54.4253000000	  60.2166675201	  38.6689000000
C	  53.4845000000	  59.6854775201	  41.0264000000
F	  53.7546000000	  58.9548000000	  42.0303000000
F	  52.2480000000	  59.5215775201	  40.5712000000
F	  53.5868000000	  60.9399975201	  41.3309000000
S	  55.1155000000	  56.5851000000	  38.8014000000
O	  54.7443000000	  55.3464000000	  39.4563000000
O	  56.5007000000	  56.8985000000	  38.6915000000
C	  54.5468000000	  56.3875000000	  37.0865000000
F	  53.3672000000	  55.8674000000	  37.1934000000
F	  54.3037000000	  57.5337000000	  36.4713000000
F	  55.3262000000	  55.6417000000	  36.3405000000
