28

Li	  33.9212000000	  40.5038000000	  47.4165000000
O	  32.9929000000	  40.3026000000	  49.1600000000
O	  32.9376000000	  39.8276000000	  51.4077000000
C	  32.5866000000	  38.9475000000	  49.3908000000
C	  33.0558000000	  38.5651000000	  50.8125000000
C	  33.1822000000	  40.7760000000	  50.4745000000
H	  31.4338000000	  38.9574000000	  49.3393000000
H	  32.8814000000	  38.2385000000	  48.5952000000
H	  32.4432000000	  37.8009000000	  51.2712000000
H	  34.1209000000	  38.3334000000	  50.7851000000
H	  34.2686000000	  41.0617000000	  50.4953000000
H	  32.5340000000	  41.6192000000	  50.8506000000
S	  35.6113000000	  41.8509000000	  47.3095000000
S	  35.3965000000	  43.6925000000	  48.2206000000
S	  36.5683000000	  44.0932000000	  49.8634000000
S	  34.6551000000	  41.6814000000	  54.3125000000
S	  35.5194000000	  42.3918000000	  56.1971000000
S	  37.0584000000	  41.1061000000	  56.9764000000
S	  35.8860000000	  42.2714000000	  52.6635000000
S	  35.4446000000	  44.0628000000	  51.6307000000
S	  38.3115000000	  41.1552000000	  44.3999000000
S	  36.2744000000	  40.9194000000	  43.9699000000
S	  35.5268000000	  42.5184000000	  42.8970000000
S	  32.1359000000	  41.9131000000	  46.3335000000
S	  31.8660000000	  39.8451000000	  46.1202000000
S	  33.7877000000	  38.8745000000	  46.0225000000
S	  32.5946000000	  43.0308000000	  44.5049000000
S	  34.5494000000	  43.8172000000	  44.2653000000
