38

Li	  57.7289000000	   2.6593100000	  12.1059000000
O	  58.7419000000	   5.9158700000	   9.9303500000
O	  58.2610000000	   4.0586300000	  11.0514000000
C	  59.9773469981	   5.4753800000	  10.5000000000
C	  59.6720769981	   4.1764300000	  11.3035000000
C	  57.9154000000	   4.8148900000	   9.8830600000
H	  60.7540969981	   5.3704800000	   9.7265800000
H	  60.2843769981	   6.3059200000	  11.1440000000
H	  60.2482969981	   3.3982700000	  10.8380000000
H	  59.8124269981	   4.2059600000	  12.3526000000
H	  56.8231000000	   5.2281200000	   9.9792500000
H	  58.0600000000	   4.1628800000	   9.0335900000
O	  58.2863000000	   2.1004200000	  13.6411000000
O	  57.1943000000	   0.9938280000	  15.2144000000
C	  57.9394000000	   3.0325000000	  14.6681000000
C	  57.3693000000	   2.2359000000	  15.8435000000
C	  58.2240000000	   0.8926360000	  14.3117000000
H	  58.7453000000	   3.6180800000	  15.1300000000
H	  57.0893000000	   3.6818800000	  14.3438000000
H	  58.1814000000	   2.0345200000	  16.5352000000
H	  56.5156000000	   2.6338800000	  16.3512000000
H	  58.1400000000	   0.0042224799	  13.7022000000
H	  59.1455000000	   0.7866090000	  14.8536000000
N	  57.9831000000	  -0.5632775201	   8.9620300000
S	  56.5662000000	  -0.2564775201	   8.3180700000
O	  55.5607000000	   0.2948224799	   9.2184800000
O	  56.7689000000	   0.4002224799	   7.0374100000
C	  55.9215000000	  -1.9176775201	   7.8838200000
F	  55.8703000000	  -2.7262775201	   8.9448900000
F	  56.7159000000	  -2.5342775201	   7.0272400000
F	  54.6867000000	  -1.9566775201	   7.4533000000
S	  58.6293000000	   0.0017224799	  10.2792000000
O	  58.9188000000	  -0.9829775201	  11.2918000000
O	  58.0702000000	   1.2469400000	  10.7643000000
C	  60.2632469981	   0.5132224799	   9.6308500000
F	  60.9255969981	  -0.4307775201	   8.9782700000
F	  60.0855969981	   1.5124900000	   8.8008200000
F	  61.1619469981	   0.9626460000	  10.5369000000
