28

Li	  13.1787000000	  41.5383000000	  17.9986000000
O	  12.5525000000	  40.1528000000	  16.7353000000
O	  12.1271000000	  39.7752000000	  14.5264000000
C	  11.8394000000	  38.9154000000	  16.5887000000
C	  11.9072000000	  38.4996000000	  15.1383000000
C	  12.9221000000	  40.4973000000	  15.4123000000
H	  12.3186000000	  38.1708000000	  17.2747000000
H	  10.7999000000	  39.0762000000	  16.8507000000
H	  12.7660000000	  37.8598000000	  15.0999000000
H	  10.9991000000	  37.9949000000	  14.7498000000
H	  12.7780000000	  41.5930000000	  15.4772000000
H	  13.9764000000	  40.2204000000	  15.3562000000
S	  13.4579000000	  39.2361000000	  23.6079000000
S	  14.5333000000	  37.3768000000	  23.4668000000
S	  16.5004000000	  37.7190000000	  22.8861000000
S	  15.2537000000	  40.4471000000	  19.1700000000
S	  13.8236000000	  41.6188000000	  20.3821000000
S	  11.8081000000	  41.4629000000	  19.7302000000
S	  16.9318000000	  39.7700000000	  20.2549000000
S	  16.7760000000	  37.8298000000	  20.8604000000
S	  14.0131000000	  43.2207000000	  17.2344000000
S	  15.8991000000	  43.6406000000	  16.2966000000
S	  16.8164000000	  41.9149000000	  15.3796000000
S	  16.6211000000	  39.2368000000	  11.2704000000
S	  17.6142000000	  37.7533000000	  12.2971000000
S	  16.5852000000	  35.8262000000	  12.0619000000
S	  15.4398000000	  40.4206000000	  12.4901000000
S	  16.6365000000	  41.9400000000	  13.1833000000
