68

Li	  22.5183000000	  14.2017000000	  41.1480000000
O	  21.3698000000	  12.6737000000	  41.1610000000
O	  19.4100000000	  11.7649000000	  40.9201000000
C	  21.6448000000	  11.2627000000	  41.1514000000
C	  20.2464000000	  10.6371000000	  41.0928000000
C	  20.1751000000	  12.7694000000	  40.4421000000
H	  22.1974000000	  11.1462000000	  40.1914000000
H	  22.1627000000	  10.9483000000	  42.0663000000
H	  20.1300000000	   9.8553600000	  40.3107000000
H	  19.9358000000	  10.1255000000	  42.0157000000
H	  19.7133000000	  13.7314000000	  40.5969000000
H	  20.4956000000	  12.6538000000	  39.4356000000
O	  24.0539000000	  16.0849000000	  41.5754000000
O	  25.5477000000	  17.1057000000	  42.8250000000
C	  25.2303000000	  16.3472000000	  40.7859000000
C	  26.1912000000	  17.2103000000	  41.5926000000
C	  24.1628000000	  17.0287000000	  42.5627000000
H	  25.7716000000	  15.5464000000	  40.2325000000
H	  24.8666000000	  16.9747000000	  39.9680000000
H	  27.1173000000	  16.6324000000	  41.6350000000
H	  26.3150000000	  18.2278000000	  41.1610000000
H	  23.8390000000	  17.9831000000	  42.1381000000
H	  23.5141000000	  16.7113000000	  43.4266000000
N	  22.9582000000	  13.2999000000	  44.6154000000
S	  22.3750000000	  14.2413000000	  45.7267000000
O	  22.6981000000	  15.6298000000	  45.5238000000
O	  21.0169000000	  13.8957000000	  46.0546000000
C	  23.2023000000	  13.6836000000	  47.1425000000
F	  22.9660000000	  12.3679000000	  47.2355000000
F	  22.6014000000	  14.2656000000	  48.2077000000
F	  24.5110000000	  13.8111000000	  47.1384000000
S	  24.2367000000	  13.4211000000	  43.7481000000
O	  25.1453000000	  14.4188000000	  44.2725000000
O	  24.0267000000	  13.3791000000	  42.3429000000
C	  25.1300000000	  11.8697000000	  44.1884000000
F	  26.0716000000	  11.5920000000	  43.3127000000
F	  25.6731000000	  11.9279000000	  45.3968000000
F	  24.2702000000	  10.8052000000	  44.2011000000
N	  19.0317000000	  16.0809000000	  41.7563000000
S	  17.5747000000	  16.5883000000	  41.7641000000
O	  16.9275000000	  16.6028000000	  43.0253000000
O	  17.3914000000	  17.7677000000	  40.9324000000
C	  16.7225000000	  15.1932000000	  40.8880000000
F	  17.4923000000	  14.6364000000	  40.0251000000
F	  15.6288000000	  15.6048000000	  40.2770000000
F	  16.3611000000	  14.2505000000	  41.6709000000
S	  20.0020000000	  15.9174000000	  42.9541000000
O	  21.1923000000	  15.1798000000	  42.5569000000
O	  19.3405000000	  15.5249000000	  44.2059000000
C	  20.5551000000	  17.6683000000	  43.0724000000
F	  21.4418000000	  17.6589000000	  44.0831000000
F	  21.1337000000	  18.1126000000	  42.0160000000
F	  19.5861000000	  18.5355000000	  43.3671000000
N	  22.5362000000	  14.5141000000	  37.7180000000
S	  21.8913000000	  15.6387000000	  38.4832000000
O	  21.7081000000	  15.3377000000	  39.8818000000
O	  22.2444000000	  16.9855000000	  38.0650000000
C	  20.1297000000	  15.4759000000	  37.8954000000
F	  19.9821000000	  15.8122000000	  36.6225000000
F	  19.3991000000	  16.2834000000	  38.5719000000
F	  19.5183000000	  14.3342000000	  38.0459000000
S	  23.4674000000	  13.4201000000	  38.2453000000
O	  23.0413000000	  12.0362000000	  38.0139000000
O	  24.0577000000	  13.8215000000	  39.5246000000
C	  24.8642000000	  13.6917000000	  37.0665000000
F	  25.7146000000	  12.7013000000	  37.1519000000
F	  24.5591000000	  13.7458000000	  35.8393000000
F	  25.4888000000	  14.8331000000	  37.4203000000
