39

Li	  58.6163000000	  57.5035000000	  37.7983000000
N	  54.5066000000	  58.4674000000	  38.9296000000
S	  55.3167000000	  57.9627000000	  37.5912000000
O	  54.8902000000	  58.5676000000	  36.3394000000
O	  56.7199000000	  57.7585000000	  37.7922000000
C	  54.6173000000	  56.3304000000	  37.3797000000
F	  53.4287000000	  56.3466000000	  36.8874000000
F	  54.4961000000	  55.7649000000	  38.5982000000
F	  55.3928000000	  55.6126000000	  36.5537000000
S	  53.4027000000	  59.6227475201	  38.9438000000
O	  52.3842000000	  59.4289345201	  39.9039000000
O	  52.9675000000	  60.1632875201	  37.6894000000
C	  54.3403000000	  61.0179475201	  39.5542000000
F	  55.3696000000	  61.2454775201	  38.8260000000
F	  53.6284000000	  62.1886775201	  39.6215000000
F	  54.7901000000	  60.7369475201	  40.8220000000
N	  61.8092969981	  57.3389000000	  40.1622000000
S	  63.0432169981	  56.6354000000	  40.7224000000
O	  63.9566469981	  56.0845000000	  39.7832000000
O	  63.5997869981	  57.2947000000	  41.8717000000
C	  62.2708769981	  55.1190000000	  41.3521000000
F	  63.0510169981	  54.3610000000	  41.9910000000
F	  61.7983569981	  54.3362000000	  40.4200000000
F	  61.2791769981	  55.3116000000	  42.1614000000
S	  61.8021969981	  58.2271000000	  38.8889000000
O	  60.5724269981	  58.0758000000	  38.2294000000
O	  63.0268769981	  58.3280000000	  38.1551000000
C	  61.5071769981	  59.8757375201	  39.6678000000
F	  60.3890869981	  59.7866875201	  40.4078000000
F	  62.4331169981	  60.3370175201	  40.5506000000
F	  61.2861869981	  60.7893275201	  38.7609000000
S	  55.2290000000	  61.4874275201	  33.7480000000
S	  55.2246000000	  61.7116475201	  35.8652000000
S	  57.2065000000	  62.3225575201	  36.4956000000
S	  58.5491000000	  57.8582000000	  34.9687000000
S	  59.6786069981	  56.2364000000	  35.7720000000
S	  58.8346000000	  55.3753000000	  37.5360000000
S	  59.3952719981	  59.6449775201	  35.6058000000
S	  58.2807000000	  60.6563175201	  37.1615000000
