42

Li	  33.0529000000	  39.3535000000	  53.1040000000
O	  32.2780000000	  35.5069000000	  51.8759000000
O	  32.8523000000	  37.6760000000	  52.3025000000
C	  33.5923000000	  35.5336000000	  52.3598000000
C	  34.0573000000	  36.9401000000	  52.0148000000
C	  31.7857000000	  36.8430000000	  52.0647000000
H	  33.6192000000	  35.2314000000	  53.3988000000
H	  34.2234000000	  34.8387000000	  51.9162000000
H	  34.9724000000	  37.2502000000	  52.6426000000
H	  34.2525000000	  37.0155000000	  50.9588000000
H	  31.0536000000	  37.1558000000	  51.3283000000
H	  31.2852000000	  36.8741000000	  52.9453000000
O	  30.1114000000	  41.6553000000	  52.5204000000
O	  31.1629000000	  40.1494000000	  53.7928000000
C	  30.4861000000	  42.3431000000	  53.7420000000
C	  30.7911000000	  41.2391000000	  54.6860000000
C	  30.3037000000	  40.2895000000	  52.7578000000
H	  31.3247000000	  43.0265000000	  53.5670000000
H	  29.6377000000	  43.0170000000	  54.0573000000
H	  31.6902000000	  41.5752000000	  55.1868000000
H	  29.9432000000	  41.0454000000	  55.2867000000
H	  29.3935000000	  39.7939000000	  53.0751000000
H	  30.6247000000	  39.7334000000	  51.8731000000
O	  33.9339000000	  42.4366000000	  50.7754000000
O	  33.2358000000	  40.4597000000	  51.6007000000
C	  34.3138000000	  41.3882000000	  49.8844000000
C	  33.4837000000	  40.1757000000	  50.2222000000
C	  33.0358000000	  41.8719000000	  51.6060000000
H	  34.1504000000	  41.5883000000	  48.8390000000
H	  35.3673000000	  41.2106000000	  49.9295000000
H	  32.5121000000	  40.1783000000	  49.7679000000
H	  33.8070000000	  39.1753000000	  50.0135000000
H	  33.0439000000	  42.3181000000	  52.5941000000
H	  32.0801000000	  42.0233000000	  51.1679000000
S	  40.8425000000	  39.3481000000	  49.4916000000
S	  40.6580000000	  41.5097000000	  49.3521000000
S	  38.7864000000	  42.2497000000	  49.9414000000
S	  36.1653000000	  40.5071000000	  53.5456000000
S	  34.4074000000	  40.5768000000	  54.7730000000
S	  33.7549000000	  38.6796000000	  55.1048000000
S	  36.6861000000	  42.4127000000	  52.8166000000
S	  38.6184000000	  42.2756000000	  51.9906000000
