28

Li	  36.9690000000	  10.7527000000	   7.2476700000
O	  36.2479000000	  12.1534000000	   6.1682400000
O	  35.5202000000	  13.8794000000	   4.7942700000
C	  35.3446000000	  11.7618000000	   5.1739700000
C	  34.4946000000	  12.9113000000	   4.7658300000
C	  36.3772000000	  13.5223000000	   5.8089700000
H	  35.8770000000	  11.3687000000	   4.3297000000
H	  34.6706000000	  11.0240000000	   5.6728100000
H	  34.0565000000	  12.8057000000	   3.7752100000
H	  33.7860000000	  13.2001000000	   5.5318100000
H	  36.0539000000	  14.1642000000	   6.6060200000
H	  37.3467000000	  13.9571000000	   5.4544700000
S	  35.7574000000	  10.7598000000	   9.2384400000
S	  37.0085000000	  12.4695000000	   9.1691000000
S	  38.7438000000	  12.2015000000	   7.8513500000
S	  42.2589000000	  14.7434000000	   4.8614000000
S	  42.6397000000	  16.6782000000	   4.2051100000
S	  43.5279000000	  17.8334000000	   5.7878300000
S	  40.2105000000	  14.4990000000	   5.4097300000
S	  39.9144000000	  13.8652000000	   7.4432900000
S	  37.2711000000	   8.9273300000	   6.1526400000
S	  38.6384000000	   8.3535000000	   7.6392700000
S	  40.6225000000	   8.9124800000	   6.9925900000
S	  42.9026000000	   4.4906100000	   6.6136200000
S	  44.7145000000	   3.2910200000	   6.5795400000
S	  44.8804000000	   2.0364300000	   4.9615100000
S	  43.2041000000	   6.6072800000	   6.4751500000
S	  42.1099000000	   7.8129800000	   7.8854800000
