49

Li	  34.2988000000	  28.4533000000	  51.0824000000
O	  32.4356000000	  28.8677000000	  51.7550000000
O	  30.6695000000	  27.5597000000	  51.4269000000
C	  31.4934000000	  29.7598000000	  51.0696000000
C	  30.2501000000	  28.8486000000	  51.0071000000
C	  31.7444000000	  27.7601000000	  52.2556000000
H	  31.3921000000	  30.7888000000	  51.4761000000
H	  31.8534000000	  29.8597000000	  50.0987000000
H	  29.4249000000	  29.2606000000	  51.6017000000
H	  29.8490000000	  28.8468000000	  49.9912000000
H	  32.3972000000	  26.8944000000	  52.3881000000
H	  31.2739000000	  28.0645000000	  53.1073000000
O	  35.3223000000	  27.5620000000	  52.2502000000
O	  37.2646000000	  26.5164000000	  52.9113000000
C	  35.0576000000	  26.9181000000	  53.4704000000
C	  36.3925000000	  26.5047000000	  53.9486000000
C	  36.7245000000	  27.3786000000	  52.0340000000
H	  34.5450000000	  27.4751000000	  54.2542000000
H	  34.4620000000	  26.0182000000	  53.2233000000
H	  36.8160000000	  27.1305000000	  54.7478000000
H	  36.3842000000	  25.5199000000	  54.3388000000
H	  36.7033000000	  26.9914000000	  51.0261000000
H	  37.2093000000	  28.3320000000	  52.1115000000
O	  34.1428000000	  25.3571000000	  48.2494000000
O	  34.2086000000	  26.8524000000	  49.8963000000
C	  33.3382000000	  26.4190000000	  47.8921000000
C	  32.9708000000	  26.9377000000	  49.3249000000
C	  34.6484000000	  25.6322000000	  49.5009000000
H	  33.9770000000	  27.2092000000	  47.4424000000
H	  32.4195000000	  26.2057000000	  47.3483000000
H	  32.5632000000	  27.9134000000	  49.1855000000
H	  32.1221000000	  26.3221000000	  49.6820000000
H	  34.4195000000	  24.8797000000	  50.2450000000
H	  35.7435000000	  25.6652000000	  49.4519000000
N	  36.1129000000	  31.6465000000	  50.8226000000
S	  36.3341000000	  30.6160000000	  49.6736000000
O	  37.6495000000	  30.6468000000	  49.0456000000
O	  35.7776000000	  29.2689000000	  49.9272000000
C	  35.2034000000	  31.3179000000	  48.4131000000
F	  35.4202000000	  32.5854000000	  48.0968000000
F	  33.8844000000	  31.2549000000	  48.7900000000
F	  35.1577000000	  30.6688000000	  47.2531000000
S	  35.6720000000	  31.4486000000	  52.2923000000
O	  36.8219000000	  31.4457000000	  53.1342000000
O	  34.7081000000	  30.4345000000	  52.4871000000
C	  34.8405000000	  33.0476000000	  52.6286000000
F	  33.7860000000	  33.0551000000	  51.8281000000
F	  34.3629000000	  33.2012000000	  53.8404000000
F	  35.5409000000	  34.0515000000	  52.2207000000
