64

Li	  39.6341000000	  43.3950000000	  16.4672000000
O	  40.6723000000	  41.9379000000	  20.1610000000
O	  40.3490000000	  43.1020000000	  18.2828000000
C	  41.9230000000	  42.6402000000	  20.0199000000
C	  41.7382000000	  43.2315000000	  18.6030000000
C	  39.7862000000	  42.8785000000	  19.5269000000
H	  42.0792000000	  43.2215000000	  20.9841000000
H	  42.7598000000	  41.9746000000	  20.1672000000
H	  42.0585000000	  44.1945000000	  18.5979000000
H	  42.2832000000	  42.6858000000	  17.8013000000
H	  38.8407000000	  42.3946000000	  19.3683000000
H	  39.6414000000	  43.8608000000	  20.0904000000
O	  39.9094000000	  39.7396000000	  14.8446000000
O	  39.3664000000	  41.2534000000	  16.4785000000
C	  40.6969000000	  39.4137000000	  16.0024000000
C	  40.0663000000	  40.2747000000	  17.1941000000
C	  38.8954000000	  40.5835000000	  15.3506000000
H	  40.8075000000	  38.3778000000	  16.1966000000
H	  41.6177000000	  39.8841000000	  15.8087000000
H	  39.3240000000	  39.8645000000	  17.8923000000
H	  40.8786000000	  40.6279000000	  17.9017000000
H	  38.7712000000	  41.2490000000	  14.4995000000
H	  38.0345000000	  39.9674000000	  15.4686000000
O	  39.7544000000	  45.3252000000	  16.5006000000
O	  40.7192000000	  47.2886000000	  16.2036000000
C	  39.1062000000	  46.2103000000	  17.3621000000
C	  39.5676000000	  47.5500000000	  16.9859000000
C	  40.5744000000	  46.0420000000	  15.6659000000
H	  37.9889000000	  46.1269000000	  17.2796000000
H	  39.4269000000	  45.9753000000	  18.3803000000
H	  38.8153000000	  48.0289000000	  16.3857000000
H	  39.6590000000	  48.2052000000	  17.8874000000
H	  41.4512000000	  45.4939000000	  15.4601000000
H	  40.0238000000	  46.2443000000	  14.6829000000
N	  36.0077000000	  43.9607000000	  15.6429000000
S	  36.1772000000	  43.2360000000	  17.0554000000
O	  35.4419000000	  42.0154000000	  17.2562000000
O	  37.5859000000	  43.2753000000	  17.4522000000
C	  35.4260000000	  44.4533000000	  18.2157000000
F	  34.1133000000	  44.5071000000	  18.1858000000
F	  35.8745000000	  45.6640000000	  18.0926000000
F	  35.6829000000	  44.1211000000	  19.4634000000
S	  37.0065000000	  43.9653000000	  14.4056000000
O	  36.4883000000	  43.2525000000	  13.3093000000
O	  38.4355000000	  43.8495000000	  14.6925000000
C	  36.8856000000	  45.6634000000	  13.8079000000
F	  35.7124000000	  46.0902000000	  13.4961000000
F	  37.2942000000	  46.4846000000	  14.7564000000
F	  37.6930000000	  45.9083000000	  12.7572000000
N	  43.6405000000	  42.4785000000	  14.0717000000
S	  44.4996000000	  41.6149000000	  15.0426000000
O	  43.9754000000	  41.5415000000	  16.3827000000
O	  44.9840000000	  40.3532000000	  14.5754000000
C	  45.9550000000	  42.6498000000	  15.1631000000
F	  46.7913000000	  42.3717000000	  16.1613000000
F	  45.6143000000	  43.8916000000	  15.2483000000
F	  46.6652000000	  42.4733000000	  14.0652000000
S	  42.0863000000	  42.6250000000	  14.0558000000
O	  41.6045000000	  43.1177000000	  15.3507000000
O	  41.3737000000	  41.4808000000	  13.5249000000
C	  41.7186000000	  43.9946000000	  12.8824000000
F	  42.2342000000	  43.7360000000	  11.7167000000
F	  40.4556000000	  44.2020000000	  12.5697000000
F	  42.2678000000	  45.1064000000	  13.2156000000
