42

Li	  54.9475000000	  28.0650000000	   4.1450700000
O	  53.2378000000	  27.6440000000	   3.4694200000
O	  52.3953000000	  25.6310000000	   3.2554100000
C	  51.9867000000	  27.7651000000	   4.0451300000
C	  51.3878000000	  26.3815000000	   3.8592100000
C	  53.1146000000	  26.5691000000	   2.5673700000
H	  52.1590000000	  28.0202000000	   5.0145700000
H	  51.2782000000	  28.4586000000	   3.5826000000
H	  50.9480000000	  25.8947000000	   4.7567000000
H	  50.6880000000	  26.3171000000	   3.0779300000
H	  52.6598000000	  26.7897000000	   1.6105900000
H	  54.0149000000	  26.1053000000	   2.2789400000
N	  53.2649000000	  25.9741000000	   7.1641800000
S	  53.1284000000	  24.4398000000	   7.0159800000
O	  52.3342000000	  24.1435000000	   5.8305000000
O	  54.3395000000	  23.6444000000	   7.2317000000
C	  52.0917000000	  24.0688000000	   8.4364100000
F	  52.4938000000	  24.7011000000	   9.5632100000
F	  52.1470000000	  22.7997000000	   8.7317500000
F	  50.7899000000	  24.3366000000	   8.1791800000
S	  54.5829000000	  26.7938000000	   7.2561000000
O	  54.7694000000	  27.5376000000	   6.0503700000
O	  55.7095000000	  26.0539000000	   7.7385300000
C	  54.1246000000	  28.0077000000	   8.5574000000
F	  54.1089000000	  27.4609000000	   9.7603000000
F	  54.9591000000	  28.9686000000	   8.6128400000
F	  52.9114000000	  28.5326000000	   8.2757500000
N	  56.6331000000	  29.9373000000	   1.7589900000
S	  56.8942000000	  28.3936000000	   1.7006200000
O	  58.3011000000	  28.0943000000	   1.6165300000
O	  56.0159000000	  27.6400000000	   2.6500500000
C	  56.2675000000	  27.8243000000	   0.0779123988
F	  54.9266000000	  27.6545000000	   0.0567123988
F	  56.8623000000	  26.7155000000	  -0.3207876012
F	  56.5040000000	  28.6908000000	  -0.8839876012
S	  55.6676000000	  30.7538000000	   2.6719800000
O	  56.0686000000	  32.0872000000	   2.8650900000
O	  55.2595000000	  29.9454000000	   3.7934300000
C	  54.3086000000	  30.9381000000	   1.4587200000
F	  54.7257000000	  31.3430000000	   0.2417123988
F	  53.5751000000	  29.8256000000	   1.3028900000
F	  53.4131000000	  31.8723000000	   1.8402800000
