46

Li	  54.4409000000	  27.1770000000	   2.2127900000
N	  54.5035000000	  26.2896000000	   6.3929900000
S	  54.3730000000	  24.7858000000	   6.6756100000
O	  53.0245000000	  24.2214000000	   6.5931600000
O	  55.5157000000	  24.0088000000	   6.2109800000
C	  54.8027000000	  24.8188000000	   8.4651500000
F	  55.8400000000	  25.5477000000	   8.6393900000
F	  54.9639000000	  23.6672000000	   9.0796900000
F	  53.8031000000	  25.3713000000	   9.1353700000
S	  53.4927000000	  27.1845000000	   5.6332300000
O	  52.1349000000	  26.6731000000	   5.5762800000
O	  53.9439000000	  27.6125000000	   4.3312300000
C	  53.6427000000	  28.7784000000	   6.6184100000
F	  54.7648000000	  29.3817000000	   6.3834200000
F	  52.6656000000	  29.5924000000	   6.2746600000
F	  53.4454000000	  28.6090000000	   7.9188000000
N	  55.0969000000	  29.9737000000	   0.0282123988
S	  53.9337000000	  30.0882000000	   1.1028400000
O	  52.9706000000	  31.1573000000	   0.8764090000
O	  53.4565000000	  28.8325000000	   1.6641100000
C	  54.9506000000	  30.6787000000	   2.4958100000
F	  54.1919000000	  30.8960000000	   3.5614700000
F	  55.5268000000	  31.8910000000	   2.2266700000
F	  55.9574000000	  29.8236000000	   2.8080900000
S	  55.7389000000	  28.6550000000	  -0.4686876012
O	  55.7168000000	  28.4681000000	  -1.9067876012
O	  55.4262000000	  27.5077000000	   0.3434123988
C	  57.5996000000	  29.0114000000	  -0.0750876012
F	  58.1149000000	  29.7859000000	  -1.0460876012
F	  57.6966000000	  29.6331000000	   1.0635800000
F	  58.3047000000	  27.9103000000	  -0.2131876012
N	  54.0610000000	  23.6079000000	   2.3079600000
S	  52.8035000000	  24.5176000000	   2.1613000000
O	  52.1044000000	  24.6103000000	   3.4213500000
O	  53.0311000000	  25.7223000000	   1.3939100000
C	  51.8288000000	  23.4852000000	   0.9853430000
F	  52.5188000000	  23.1510000000	  -0.1146876012
F	  50.7047000000	  24.1369000000	   0.6458123988
F	  51.4321000000	  22.3407000000	   1.5331500000
S	  55.4773000000	  24.1263000000	   2.6366900000
O	  56.1171000000	  23.3479000000	   3.6716600000
O	  55.5706000000	  25.5763000000	   2.6792000000
C	  56.3922000000	  23.5392000000	   1.2056200000
F	  57.6178000000	  24.0009000000	   1.2640400000
F	  56.5148000000	  22.2412000000	   1.1478300000
F	  55.9491000000	  23.9760000000	   0.0344123988
