34

Li	  51.4597000000	  46.0300000000	  33.7011000000
O	  51.0643000000	  47.3084000000	  29.7999000000
O	  51.5129000000	  46.8331000000	  31.8934000000
C	  51.9960000000	  48.2382000000	  30.1758000000
C	  52.0339000000	  48.0798000000	  31.6349000000
C	  51.3460000000	  46.2623000000	  30.6469000000
H	  52.9806000000	  48.1855000000	  29.6554000000
H	  51.5916000000	  49.2217000000	  29.9749000000
H	  52.9825000000	  48.2723000000	  32.1408000000
H	  51.3366000000	  48.7242000000	  32.0866000000
H	  50.4540000000	  45.6043000000	  30.7305000000
H	  52.1918000000	  45.7231000000	  30.2798000000
O	  53.2625000000	  46.0064000000	  34.0575000000
O	  54.9742000000	  46.2869000000	  35.3801000000
C	  54.4651000000	  45.7776000000	  33.3570000000
C	  55.3036000000	  46.6610000000	  34.1075000000
C	  53.6149000000	  46.1306000000	  35.3714000000
H	  54.8471000000	  44.6821000000	  33.4698000000
H	  54.3503000000	  46.0149000000	  32.2902000000
H	  56.3305000000	  46.6999000000	  33.8439000000
H	  54.9505000000	  47.6824000000	  34.1108000000
H	  53.2520000000	  47.1276000000	  35.7619000000
H	  53.2632000000	  45.2531000000	  36.0054000000
O	  49.5197000000	  42.6850000000	  33.2913000000
O	  50.0675000000	  44.6673000000	  34.0212000000
C	  50.3123000000	  42.4513000000	  34.4872000000
C	  50.5984000000	  43.8265000000	  35.0573000000
C	  49.0720000000	  43.9654000000	  33.4279000000
H	  49.8829000000	  41.7132000000	  35.2156000000
H	  51.2272000000	  41.9662000000	  34.1222000000
H	  50.0838000000	  44.0191000000	  36.0836000000
H	  51.6803000000	  43.9435000000	  35.1842000000
H	  48.8791000000	  44.4087000000	  32.4193000000
H	  48.1909000000	  43.9817000000	  34.1036000000
