45

Li	  47.7140000000	  59.2081000000	   4.6888200000
O	  49.0497000000	  59.4224405201	   5.8665400000
O	  49.8227000000	  58.3585000000	   7.7173700000
C	  50.4119000000	  59.7722875201	   5.9845100000
C	  50.9861000000	  58.8707000000	   7.1343600000
C	  48.7447000000	  58.9799000000	   7.1509500000
H	  50.8459000000	  59.5485275201	   5.0341800000
H	  50.4908000000	  60.8014475201	   6.2438300000
H	  51.6151000000	  58.0820000000	   6.7095000000
H	  51.4852000000	  59.5697875201	   7.8075100000
H	  48.4940000000	  59.8262675201	   7.8089700000
H	  47.8601000000	  58.3420000000	   7.0957000000
O	  48.3090000000	  57.3146000000	   4.0901000000
O	  49.5495000000	  55.8604000000	   3.0256800000
C	  47.4691000000	  56.6736000000	   3.0765100000
C	  48.2810000000	  55.4289000000	   2.7241600000
C	  49.4514000000	  56.5249000000	   4.2018900000
H	  46.4246000000	  56.5009000000	   3.3231200000
H	  47.4531000000	  57.3402000000	   2.3002900000
H	  47.9924000000	  54.5623000000	   3.3342500000
H	  48.3367000000	  55.1983000000	   1.6306100000
H	  50.3708000000	  57.0589000000	   4.5682300000
H	  49.1710000000	  55.8488000000	   4.9602600000
O	  48.1945000000	  60.3476675201	   0.7564340000
O	  48.3468000000	  59.7830475201	   2.9731600000
C	  49.4856000000	  60.7302275201	   1.0850300000
C	  49.5592000000	  60.2420075201	   2.5598900000
C	  47.5189000000	  60.2388475201	   1.9142900000
H	  50.2580000000	  60.3619675201	   0.4626123988
H	  49.5006000000	  61.7723975201	   1.1809300000
H	  50.3769000000	  59.5418275201	   2.7795300000
H	  49.6951000000	  61.0797275201	   3.2186900000
H	  47.0139000000	  61.1972175201	   2.0907100000
H	  46.6616000000	  59.5176275201	   1.7247900000
O	  46.9513000000	  63.2292075201	   5.6720500000
O	  46.8015000000	  61.0246475201	   5.2917100000
C	  46.0691000000	  63.0891175201	   4.5949800000
C	  45.6707000000	  61.6485975201	   4.8257300000
C	  47.6786000000	  62.0764675201	   5.6695700000
H	  45.2651000000	  63.7910275201	   4.7236200000
H	  46.5815000000	  63.2470475201	   3.6746600000
H	  44.9132000000	  61.6170975201	   5.6623600000
H	  45.2971000000	  61.2231975201	   3.9335100000
H	  48.4468000000	  62.3067875201	   4.9544900000
H	  48.0321000000	  61.7974975201	   6.6505000000
