35

Li	   9.9651100000	  44.1158000000	  26.1141000000
O	   6.9211600000	  41.8242000000	  26.1375000000
O	   8.1838100000	  43.5636000000	  26.6520000000
C	   6.4075600000	  42.9788000000	  25.4680000000
C	   6.9409100000	  44.1386000000	  26.2653000000
C	   7.8624800000	  42.3035000000	  27.0125000000
H	   6.8107200000	  43.1046000000	  24.4674000000
H	   5.3254200000	  43.0251000000	  25.4338000000
H	   7.0214900000	  45.0963000000	  25.6926000000
H	   6.3079700000	  44.1605000000	  27.1588000000
H	   7.1812500000	  42.3136000000	  27.8414000000
H	   8.6240800000	  41.5251000000	  27.1755000000
N	  10.3087000000	  46.5174000000	  28.6509000000
S	  10.8599000000	  45.0758000000	  29.0251000000
O	  10.6390000000	  44.1358000000	  27.9943000000
O	  12.1762000000	  45.0586000000	  29.6355000000
C	   9.7176500000	  44.3667000000	  30.3909000000
F	   8.4897400000	  44.2843000000	  29.9415000000
F	   9.6008000000	  45.1608000000	  31.4139000000
F	  10.0201000000	  43.1703000000	  30.8580000000
S	  10.0858000000	  47.0933000000	  27.1585000000
O	   9.6054900000	  46.0805000000	  26.2240000000
O	  11.0579000000	  48.0837000000	  26.7051000000
C	   8.5999600000	  48.1812000000	  27.4850000000
F	   8.9083400000	  49.1990000000	  28.2624000000
F	   8.2433600000	  48.6302000000	  26.2457000000
F	   7.5866300000	  47.5330000000	  28.0819000000
S	   8.7703900000	  34.5097000000	  26.2743000000
S	   7.2348700000	  35.9202000000	  25.9274000000
S	   8.0305000000	  37.8386000000	  25.6644000000
S	  10.4154000000	  40.8462000000	  23.2315000000
S	  10.5534000000	  42.1330000000	  24.8381000000
S	  10.4193000000	  44.0714000000	  24.0238000000
S	   8.4713400000	  40.1051000000	  23.0721000000
S	   8.4067200000	  38.1256000000	  23.6316000000
