35

Li	  33.8183000000	  38.7567000000	  11.8809000000
O	  32.5398000000	  41.8190000000	   9.8882100000
O	  33.8966000000	  40.5622000000	  11.1887000000
C	  33.5641000000	  41.3149000000	   9.0768400000
C	  34.6505000000	  40.9097000000	  10.0468000000
C	  32.8601000000	  41.5102000000	  11.1768000000
H	  33.1193000000	  40.5217000000	   8.5393800000
H	  33.8953000000	  42.1124000000	   8.3486200000
H	  35.3290000000	  40.1014000000	   9.6024400000
H	  35.2509000000	  41.7966000000	  10.2595000000
H	  33.1561000000	  42.4234000000	  11.7038000000
H	  31.9796000000	  41.0853000000	  11.7159000000
N	  33.0854000000	  35.4417000000	   9.9395200000
S	  31.7358000000	  34.9766000000	  10.4759000000
O	  31.7252000000	  34.6207000000	  11.8962000000
O	  30.5872000000	  35.5613000000	   9.8497400000
C	  31.6168000000	  33.3098000000	   9.7365700000
F	  32.2052000000	  33.2911000000	   8.5425500000
F	  30.3735000000	  32.8633000000	   9.5492500000
F	  32.2328000000	  32.4342000000	  10.5218000000
S	  33.3395000000	  36.8237000000	   9.2523200000
O	  33.4733000000	  37.8887000000	  10.3103000000
O	  32.5291000000	  37.0897000000	   8.0968900000
C	  35.0236000000	  36.6222000000	   8.6527300000
F	  35.6684000000	  37.7506000000	   8.3408200000
F	  35.8339000000	  35.9295000000	   9.4463400000
F	  34.8775000000	  35.9416000000	   7.5218600000
S	  29.4080000000	  38.6525000000	   8.5957400000
S	  30.6425000000	  39.2595000000	  10.1814000000
S	  29.6274000000	  39.9650000000	  11.8823000000
S	  32.7825000000	  37.8455000000	  14.6445000000
S	  34.2839000000	  39.1727000000	  13.9398000000
S	  35.6654000000	  38.0168000000	  12.7952000000
S	  30.9370000000	  38.8542000000	  14.9316000000
S	  29.5900000000	  38.3975000000	  13.3074000000
