76

Li	  20.3277000000	  32.0429000000	  17.9078000000
N	  21.6181000000	  31.6771000000	  21.9259000000
S	  22.0885000000	  32.7915000000	  20.9327000000
O	  23.5263000000	  32.8053000000	  20.8180000000
O	  21.3928000000	  32.8982000000	  19.6574000000
C	  21.7367000000	  34.3123000000	  21.8463000000
F	  21.8858000000	  35.4602000000	  21.2139000000
F	  22.5275000000	  34.3999000000	  22.9120000000
F	  20.4806000000	  34.2768000000	  22.2654000000
S	  20.9412000000	  30.3212000000	  21.4913000000
O	  21.9296000000	  29.3034000000	  21.2513000000
O	  19.7549000000	  30.4988000000	  20.5827000000
C	  20.1974000000	  29.7190000000	  23.0664000000
F	  19.4639000000	  28.5640000000	  22.9793000000
F	  21.0816000000	  29.5502000000	  24.0156000000
F	  19.3805000000	  30.6261000000	  23.6765000000
N	  24.1526000000	  30.4900000000	  18.9611000000
S	  24.9540000000	  29.7315000000	  20.0889000000
O	  25.2558000000	  30.6648000000	  21.1806000000
O	  24.4125000000	  28.4409000000	  20.3716000000
C	  26.5173000000	  29.3801000000	  19.1722000000
F	  26.2828000000	  28.6243000000	  18.1305000000
F	  27.4659000000	  28.7926000000	  19.8630000000
F	  27.0880000000	  30.4773000000	  18.6946000000
S	  22.9285000000	  29.9184000000	  18.1561000000
O	  21.8389000000	  30.8257000000	  18.1150000000
O	  22.7847000000	  28.5185000000	  18.2075000000
C	  23.5271000000	  30.0902000000	  16.4004000000
F	  24.7212000000	  29.5221000000	  16.1574000000
F	  22.7555000000	  29.5499000000	  15.5933000000
F	  23.6422000000	  31.3648000000	  16.0789000000
N	  16.2597000000	  33.7017000000	  18.4133000000
S	  14.7397000000	  33.2349000000	  18.0863000000
O	  14.3770000000	  31.9091000000	  18.4958000000
O	  13.7006000000	  34.2227000000	  18.2010000000
C	  14.8159000000	  32.9411000000	  16.2898000000
F	  13.6470000000	  32.4732000000	  15.7609000000
F	  15.7250000000	  32.0849000000	  15.9668000000
F	  15.0756000000	  34.0987000000	  15.6959000000
S	  17.4787000000	  32.8111000000	  18.9166000000
O	  18.7795000000	  33.1506000000	  18.3803000000
O	  17.1430000000	  31.4126000000	  19.1199000000
C	  17.5856000000	  33.3426000000	  20.6180000000
F	  18.6409000000	  32.7449000000	  21.0568000000
F	  17.8601000000	  34.5986000000	  20.8644000000
F	  16.5349000000	  32.9763000000	  21.3523000000
N	  19.7135000000	  28.2654000000	  17.4716000000
S	  19.4719000000	  27.3297000000	  18.8163000000
O	  20.6840000000	  26.7945000000	  19.3586000000
O	  18.4452000000	  27.8334000000	  19.6765000000
C	  18.7096000000	  25.8556000000	  18.1206000000
F	  18.5392000000	  24.8937000000	  19.0866000000
F	  19.4599000000	  25.2557000000	  17.1989000000
F	  17.6096000000	  26.0759000000	  17.4054000000
S	  18.7011000000	  29.3105000000	  16.9321000000
O	  19.3628000000	  30.6106000000	  16.8599000000
O	  17.3249000000	  29.3002000000	  17.4088000000
C	  18.4285000000	  28.7280000000	  15.2143000000
F	  17.4980000000	  29.3777000000	  14.5365000000
F	  19.5019000000	  28.9823000000	  14.4784000000
F	  18.0757000000	  27.4793000000	  15.0295000000
N	  22.1588000000	  33.4494000000	  14.5537000000
S	  23.2349000000	  34.0950000000	  13.5902000000
O	  23.0578000000	  35.5264000000	  13.5246000000
O	  24.5403000000	  33.5188000000	  13.6443000000
C	  22.6257000000	  33.6117000000	  11.9631000000
F	  22.5764000000	  32.3198000000	  11.8489000000
F	  23.3957000000	  33.9747000000	  10.9514000000
F	  21.4151000000	  34.0395000000	  11.7355000000
S	  21.2065000000	  34.0654000000	  15.6695000000
O	  21.3449000000	  35.4921000000	  15.7145000000
O	  21.1345000000	  33.3897000000	  16.9591000000
C	  19.5422000000	  33.7851000000	  14.9942000000
F	  19.4281000000	  34.2583000000	  13.7685000000
F	  19.3147000000	  32.4633000000	  14.8439000000
F	  18.5863000000	  34.2427000000	  15.7546000000
