54

Li	   5.1828500000	   3.4982100000	  24.6054000000
N	   1.6957100000	   1.8121800000	  26.2433000000
S	   0.5745230019	   2.3079400000	  27.1567000000
O	   1.0505700000	   2.6350200000	  28.4679000000
O	  -0.3095769981	   3.2127700000	  26.5363000000
C	  -0.5204769981	   0.8801520000	  27.4157000000
F	   0.0562230019	  -0.1058775201	  28.1816000000
F	  -0.9135769981	   0.3088224799	  26.2615000000
F	  -1.6808769981	   1.0980500000	  28.0513000000
S	   2.1774500000	   2.3870500000	  24.8436000000
O	   3.5773800000	   2.2357200000	  24.7046000000
O	   1.6363600000	   3.6718100000	  24.4989000000
C	   1.4294600000	   1.1563800000	  23.6444000000
F	   1.8153700000	   0.0071224799	  24.1547000000
F	   0.0710230019	   1.1976000000	  23.5875000000
F	   2.0140100000	   1.3002200000	  22.4075000000
N	   3.8694300000	   4.5861500000	  28.4959000000
S	   2.9594100000	   5.7606000000	  27.9556000000
O	   3.6220000000	   6.9711300000	  27.6408000000
O	   1.8902200000	   5.3475400000	  27.0399000000
C	   1.9915300000	   6.1287600000	  29.4673000000
F	   1.0554000000	   7.0112400000	  29.2320000000
F	   2.6598200000	   6.6877100000	  30.5122000000
F	   1.3498800000	   5.0596400000	  29.9669000000
S	   4.7999600000	   3.6020900000	  27.7376000000
O	   4.8775400000	   3.9235700000	  26.3617000000
O	   4.7117500000	   2.1911400000	  28.1764000000
C	   6.4717200000	   4.0950800000	  28.3800000000
F	   6.7148900000	   5.3712400000	  28.1096000000
F	   6.5164500000	   3.9420700000	  29.6870000000
F	   7.4653000000	   3.3606800000	  27.9387000000
N	   3.1884300000	   7.3114700000	  23.3129000000
S	   3.5326800000	   5.8845500000	  22.7322000000
O	   4.1105200000	   5.0024500000	  23.7077000000
O	   2.5241900000	   5.4046600000	  21.8088000000
C	   5.0096100000	   6.2654400000	  21.7498000000
F	   4.7245600000	   6.9724000000	  20.7155000000
F	   5.6414500000	   5.1736200000	  21.3007000000
F	   5.8726800000	   6.9413400000	  22.4880000000
S	   1.9834300000	   7.6355500000	  24.2332000000
O	   2.3239100000	   8.4975600000	  25.3646000000
O	   1.1625600000	   6.4982300000	  24.5834000000
C	   0.9482300000	   8.6506000000	  23.1399000000
F	   0.0158230019	   9.3764000000	  23.7043000000
F	   1.7614800000	   9.5237200000	  22.5135000000
F	   0.3473230019	   7.9428800000	  22.1587000000
S	  10.2381000000	   9.0942900000	  18.6676000000
S	  10.9404000000	   7.4476700000	  19.7701000000
S	   9.5695600000	   7.0436900000	  21.3209000000
S	   8.6752600000	   5.0818600000	  25.3558000000
S	   7.2609800000	   4.2388700000	  24.0167000000
S	   6.9012000000	   2.1411200000	  24.3960000000
S	  10.3487000000	   5.3262500000	  24.2746000000
S	  10.1620000000	   7.2370600000	  23.3616000000
