46

Li	   5.9779800000	  28.2134000000	  38.6488000000
O	   5.3004100000	  29.0494000000	  40.1883000000
O	   6.2136900000	  30.0854000000	  41.8824000000
C	   5.0970500000	  30.4964000000	  39.8973000000
C	   5.5409100000	  31.1606000000	  41.2238000000
C	   5.5642100000	  28.9583000000	  41.5259000000
H	   5.7444700000	  30.8198000000	  39.0704000000
H	   4.0763900000	  30.8283000000	  39.7232000000
H	   6.1771800000	  32.1242000000	  40.9920000000
H	   4.6411900000	  31.4364000000	  41.8507000000
H	   4.5627200000	  28.8591000000	  41.8849000000
H	   6.0930900000	  28.1310000000	  41.9286000000
O	   7.6838700000	  29.1318000000	  38.6691000000
O	   8.9921800000	  30.9089000000	  38.8470000000
C	   8.5553500000	  28.8307000000	  39.8194000000
C	   9.1359500000	  30.2261000000	  40.1252000000
C	   8.4342900000	  30.0669000000	  37.9599000000
H	   8.1042800000	  28.4562000000	  40.7833000000
H	   9.2961800000	  28.1315000000	  39.4406000000
H	   8.4390900000	  30.6535000000	  40.8846000000
H	  10.2312000000	  30.1457000000	  40.3121000000
H	   9.2784700000	  29.6262000000	  37.4279000000
H	   7.8957400000	  30.7545000000	  37.2722000000
N	   6.6311900000	  25.3546000000	  41.5711000000
S	   7.5158300000	  25.2604000000	  42.8420000000
O	   8.3542800000	  24.0965000000	  42.9921000000
O	   7.9713600000	  26.5243000000	  43.3811000000
C	   6.2324200000	  24.7952000000	  44.0181000000
F	   6.6921400000	  24.7666000000	  45.2791000000
F	   5.6692600000	  23.6250000000	  43.8338000000
F	   5.2212100000	  25.6135000000	  44.0273000000
S	   7.1451700000	  25.4543000000	  40.0458000000
O	   8.5743700000	  25.6441000000	  39.8567000000
O	   6.3001700000	  26.2579000000	  39.2356000000
C	   6.9228200000	  23.7490000000	  39.4501000000
F	   5.6190400000	  23.3803000000	  39.5956000000
F	   7.1657300000	  23.5952000000	  38.1374000000
F	   7.6377000000	  22.8954000000	  40.0684000000
S	  13.8305000000	  23.4690000000	  39.7169000000
S	  13.4265000000	  25.0981000000	  38.4707000000
S	  11.4343000000	  25.7388000000	  38.3554000000
S	   7.4404400000	  26.3110000000	  35.4992000000
S	   6.5401700000	  28.1612000000	  35.7522000000
S	   4.8238800000	  28.3580000000	  36.9773000000
S	   9.5593700000	  26.5079000000	  35.5861000000
S	  10.4401000000	  25.0304000000	  36.7682000000
