43

Li	  37.2808000000	   9.7150000000	   7.6464900000
O	  37.1320000000	  11.1987000000	   6.4371100000
O	  36.1219000000	  11.8544000000	   4.5706700000
C	  38.0007000000	  11.9453000000	   5.6060200000
C	  37.4674000000	  11.6881000000	   4.2117400000
C	  35.9585000000	  11.2241000000	   5.8126000000
H	  37.9311000000	  13.0275000000	   5.7865200000
H	  39.0630000000	  11.6526000000	   5.7534400000
H	  37.7673000000	  12.4699000000	   3.4666900000
H	  37.5921000000	  10.7479000000	   3.7126900000
H	  35.5050000000	  10.3155000000	   5.5668700000
H	  35.2069000000	  11.9781000000	   6.3044900000
N	  33.2759000000	   7.8518500000	   7.4299700000
S	  33.3687000000	   6.8350300000	   6.2077800000
O	  34.6895000000	   6.3655100000	   5.8379700000
O	  32.2948000000	   5.9472400000	   6.4051400000
C	  32.8351000000	   7.8358600000	   4.7748700000
F	  32.7044000000	   7.0172500000	   3.7290900000
F	  33.6878000000	   8.8723800000	   4.5327500000
F	  31.6204000000	   8.3682300000	   4.8850200000
S	  34.4059000000	   8.2031800000	   8.4855800000
O	  35.5170000000	   9.0348600000	   8.0179400000
O	  34.7721000000	   7.0942300000	   9.3051800000
C	  33.5027000000	   9.4128200000	   9.5049900000
F	  32.2038000000	   9.0067100000	   9.7391600000
F	  34.1046000000	   9.6867000000	  10.6336000000
F	  33.4185000000	  10.5689000000	   8.8688300000
S	  37.9305000000	  10.1957000000	   9.5903500000
S	  38.4671000000	  12.2129000000	   9.5669500000
S	  40.3930000000	  12.7952000000	   9.3136600000
S	  44.0023000000	  12.4678000000	   6.3356900000
S	  44.4981000000	  13.8016000000	   4.7918900000
S	  45.1670000000	  15.6419000000	   5.5941900000
S	  41.8752000000	  12.0755000000	   6.1900700000
S	  40.6997000000	  13.3987000000	   7.3486600000
S	  38.1802000000	   8.0916300000	   6.3728200000
S	  40.1048000000	   8.4950800000	   7.0637000000
S	  41.0951000000	   6.6948100000	   7.5805000000
S	  45.2197000000	   4.1376300000	   7.7595800000
S	  47.1036000000	   4.5515200000	   6.7943300000
S	  47.1361000000	   4.0456000000	   4.6842300000
S	  44.3576000000	   5.8756000000	   8.5540400000
S	  43.0607000000	   6.8944700000	   7.1344400000
