57

Li	  38.5468000000	  20.8218000000	   7.0486200000
O	  34.4641000000	  20.8723000000	   7.3886900000
O	  36.6561000000	  20.8264000000	   7.7075900000
C	  34.8038000000	  21.8351000000	   8.3883800000
C	  36.2596000000	  21.6081000000	   8.8497500000
C	  35.5723000000	  20.0071000000	   7.3917600000
H	  34.6360000000	  22.8724000000	   8.0785900000
H	  34.1112000000	  21.7571000000	   9.2377000000
H	  36.9862000000	  22.4616000000	   9.0098700000
H	  36.2559000000	  20.9569000000	   9.7257400000
H	  35.3455000000	  19.1328000000	   8.0363100000
H	  35.8473000000	  19.5938000000	   6.4169700000
N	  38.0396000000	  22.8080000000	   4.1719900000
S	  38.2519000000	  21.2739000000	   3.8380900000
O	  38.8386000000	  20.9457000000	   2.5090700000
O	  38.5465000000	  20.3879000000	   4.9302200000
C	  36.4425000000	  21.0045000000	   3.4974200000
F	  35.8081000000	  21.2839000000	   4.6285600000
F	  36.1651000000	  19.7574000000	   3.1279200000
F	  35.9722000000	  21.8102000000	   2.5478500000
S	  38.4565000000	  23.4759000000	   5.5119500000
O	  39.5844000000	  24.3261000000	   5.3185400000
O	  38.4194000000	  22.7339000000	   6.6749900000
C	  37.1437000000	  24.7427000000	   5.8038200000
F	  36.9382000000	  25.4440000000	   4.7464100000
F	  35.9740000000	  24.1667000000	   6.0310200000
F	  37.4290000000	  25.5735000000	   6.8273800000
N	  39.8939000000	  16.8209000000	   6.7041400000
S	  39.1473000000	  17.5922000000	   7.7508700000
O	  39.8926000000	  17.7383000000	   8.9639900000
O	  38.4978000000	  18.8198000000	   7.2897200000
C	  37.7215000000	  16.4769000000	   8.0655800000
F	  38.0046000000	  15.5234000000	   9.0063700000
F	  37.3278000000	  15.8233000000	   6.9695000000
F	  36.6594000000	  17.1624000000	   8.3992000000
S	  40.8364000000	  17.3128000000	   5.5511400000
O	  41.9681000000	  16.4734000000	   5.3299000000
O	  41.0909000000	  18.7353000000	   5.5036100000
C	  39.6670000000	  16.9975000000	   4.0511700000
F	  40.2311000000	  17.3764000000	   2.8814500000
F	  39.2966000000	  15.7603000000	   3.8435600000
F	  38.5395000000	  17.6504000000	   4.1463400000
N	  41.9697000000	  22.4672000000	   8.9515500000
S	  40.8914000000	  22.9627000000	   9.9952600000
O	  39.6103000000	  22.2569000000	   9.9766900000
O	  41.3956000000	  23.2884000000	  11.2993000000
C	  40.4354000000	  24.5964000000	   9.3577900000
F	  39.7161000000	  25.2934000000	  10.2672000000
F	  39.6577000000	  24.6275000000	   8.3022900000
F	  41.4816000000	  25.2957000000	   9.1093100000
S	  41.7821000000	  21.3595000000	   7.8780700000
O	  42.6231000000	  21.7099000000	   6.7413500000
O	  40.4543000000	  20.8831000000	   7.6542300000
C	  42.7260000000	  19.9698000000	   8.5560700000
F	  42.8208000000	  19.0008000000	   7.6668200000
F	  43.9828000000	  20.3024000000	   8.7801300000
F	  42.1189000000	  19.6060000000	   9.6107500000
