50

Li	  32.4230000000	  12.7477000000	  26.3727000000
O	  31.9450000000	  14.0476000000	  25.0959000000
O	  31.6438000000	  14.8699000000	  23.0589000000
C	  30.6074000000	  14.0571000000	  25.0672000000
C	  30.3884000000	  14.9746000000	  23.8005000000
C	  32.5081000000	  14.7792000000	  24.1171000000
H	  30.1909000000	  13.1246000000	  24.9029000000
H	  30.2586000000	  14.5400000000	  26.0416000000
H	  29.4625000000	  14.7032000000	  23.3164000000
H	  30.2665000000	  15.9881000000	  24.1027000000
H	  32.5930000000	  15.8326000000	  24.5117000000
H	  33.4761000000	  14.3990000000	  23.7894000000
N	  31.2738000000	  10.1337000000	  23.9803000000
S	  32.2008000000	  11.1955000000	  23.3081000000
O	  31.5217000000	  12.1636000000	  22.4411000000
O	  33.1506000000	  11.7537000000	  24.2166000000
C	  33.0955000000	  10.1784000000	  22.1280000000
F	  32.3533000000	   9.6634700000	  21.1474000000
F	  33.6072000000	   9.0521200000	  22.7517000000
F	  34.0638000000	  10.8114000000	  21.5130000000
S	  30.9786000000	   9.9616000000	  25.5486000000
O	  31.3991000000	  11.0245000000	  26.3571000000
O	  31.2134000000	   8.6272200000	  26.0070000000
C	  29.2173000000	  10.0214000000	  25.6017000000
F	  28.7866000000	  10.3434000000	  26.8287000000
F	  28.7888000000	  10.9626000000	  24.7918000000
F	  28.6423000000	   8.8944100000	  25.2398000000
N	  29.4708000000	  15.1519000000	  28.7683000000
S	  29.7696000000	  13.5932000000	  28.7465000000
O	  28.5550000000	  12.7459000000	  28.6098000000
O	  30.9581000000	  13.2452000000	  27.9079000000
C	  30.3984000000	  13.1456000000	  30.4162000000
F	  31.5097000000	  13.7475000000	  30.7195000000
F	  30.6304000000	  11.8435000000	  30.4527000000
F	  29.6721000000	  13.4291000000	  31.4875000000
S	  28.1496000000	  15.9595000000	  28.8935000000
O	  28.2438000000	  17.1951000000	  29.6161000000
O	  26.9832000000	  15.1243000000	  29.1780000000
C	  27.9707000000	  16.4112000000	  27.1742000000
F	  27.7529000000	  15.3938000000	  26.3607000000
F	  26.8850000000	  17.1433000000	  27.0976000000
F	  28.8379000000	  17.1562000000	  26.6200000000
S	  29.8122000000	  20.3810000000	  21.9316000000
S	  30.6271000000	  18.7305000000	  22.9678000000
S	  32.5922000000	  19.0978000000	  23.7253000000
S	  32.8459000000	  16.3407000000	  27.5221000000
S	  34.3125000000	  15.0143000000	  28.2595000000
S	  34.4436000000	  13.2994000000	  27.0482000000
S	  33.7494000000	  18.1534000000	  26.8556000000
S	  32.4910000000	  19.4880000000	  25.7876000000
