31

Li	  57.5867000000	  57.1710000000	  48.5505000000
O	  59.5068661069	  56.5450000000	  52.1089000000
O	  58.3290000000	  56.9090000000	  50.1939000000
C	  58.2203000000	  56.0173000000	  52.2466000000
C	  57.5707000000	  55.9497000000	  50.8490000000
C	  59.6671621069	  56.8324000000	  50.7814000000
H	  58.2941000000	  55.0113000000	  52.7399000000
H	  57.7244000000	  56.7129000000	  52.9004000000
H	  57.7503000000	  54.8966000000	  50.5450000000
H	  56.5451000000	  56.2218000000	  50.8331000000
H	  60.3595221069	  57.6705000000	  50.6426000000
H	  60.0733221069	  55.9040000000	  50.3487000000
O	  55.9720000000	  54.0851000000	  46.7981000000
O	  56.7998000000	  56.1173000000	  47.3112000000
C	  55.4568000000	  54.9597000000	  45.8458000000
C	  56.2249000000	  56.2699000000	  46.0424000000
C	  56.4181000000	  54.8754000000	  47.8524000000
H	  55.6303000000	  54.6122000000	  44.8486000000
H	  54.4259000000	  55.1978000000	  45.9717000000
H	  57.0797000000	  56.1937000000	  45.3645000000
H	  55.5950000000	  57.0947000000	  45.8016000000
H	  55.5928000000	  54.9809000000	  48.5696000000
H	  57.2901000000	  54.4231000000	  48.4171000000
S	  55.9871000000	  58.4830000000	  49.2238000000
S	  57.6125000000	  59.6808086449	  48.6828000000
S	  58.7260000000	  59.0015000000	  47.0744000000
S	  60.3886721069	  54.6093000000	  45.7954000000
S	  58.6819000000	  53.9406000000	  44.9311000000
S	  58.3944000000	  51.9501000000	  45.5259000000
S	  59.9581421069	  55.6789000000	  47.5896000000
S	  60.4584321069	  57.7929000000	  47.4730000000
