39

Li	   9.5676100000	  37.6550000000	  20.3768000000
O	  11.2946000000	  39.9446000000	  17.7484000000
O	   9.9718400000	  39.2090000000	  19.3409000000
C	  11.3351000000	  40.8604000000	  18.8463000000
C	  10.2268000000	  40.4360000000	  19.8031000000
C	  10.1750000000	  39.2954000000	  17.9892000000
H	  12.2700000000	  40.8243000000	  19.4250000000
H	  11.1959000000	  41.9270000000	  18.6009000000
H	  10.4393000000	  40.6160000000	  20.8743000000
H	   9.4020000000	  41.1109000000	  19.5669000000
H	   9.4188200000	  39.8354000000	  17.5388000000
H	  10.4265000000	  38.3250000000	  17.5058000000
O	   7.7042100000	  38.1404000000	  20.6465000000
O	   5.8793300000	  39.2387000000	  20.9315000000
C	   6.7952500000	  37.2257000000	  21.1261000000
C	   5.4426300000	  37.9332000000	  21.0767000000
C	   6.9224900000	  39.1445000000	  20.1645000000
H	   6.7562000000	  36.3680000000	  20.4450000000
H	   7.0127700000	  36.7767000000	  22.0984000000
H	   4.8909100000	  37.5480000000	  20.3026000000
H	   4.9276200000	  37.7620000000	  22.0227000000
H	   7.3872400000	  40.1143000000	  20.2978000000
H	   6.6823700000	  38.9927000000	  19.1349000000
S	   6.2393400000	  42.1187000000	  28.1370000000
S	   4.8933400000	  41.0025000000	  26.8574000000
S	   5.7311600000	  39.0545000000	  26.5472000000
S	   9.3442100000	  37.3698000000	  24.2189000000
S	   9.9325800000	  36.4906000000	  22.4655000000
S	  11.5740000000	  37.4296000000	  21.5163000000
S	   8.0659800000	  39.0878000000	  23.9484000000
S	   6.0899400000	  38.5717000000	  24.4841000000
S	   9.4406500000	  35.7375000000	  19.0258000000
S	   8.0063900000	  34.7086000000	  17.8923000000
S	   6.3029200000	  35.8752000000	  17.7811000000
S	   7.1524600000	  35.5111000000	  13.0443000000
S	   8.4166100000	  33.8656000000	  13.3900000000
S	   8.4338900000	  32.3463000000	  11.9466000000
S	   5.5430600000	  35.7418000000	  14.4605000000
S	   6.0900500000	  37.0339000000	  16.0368000000
