57

Li	  33.5675000000	   7.2711800000	  21.8205000000
O	  31.6520000000	   7.8620600000	  22.1294000000
O	  29.6803000000	   6.9273500000	  21.7966000000
C	  30.7866000000	   8.9329300000	  22.0056000000
C	  29.5317000000	   8.3004300000	  21.4518000000
C	  30.8632000000	   6.8147400000	  22.5009000000
H	  30.4972000000	   9.2421500000	  23.0478000000
H	  31.0608000000	   9.7700800000	  21.3349000000
H	  28.6358000000	   8.7409600000	  21.9537000000
H	  29.3829000000	   8.5393800000	  20.4152000000
H	  31.3829000000	   5.8841800000	  22.2994000000
H	  30.6782000000	   6.8695300000	  23.5874000000
O	  35.9384000000	  10.2350000000	  20.5989000000
O	  34.9035000000	   8.3766000000	  21.3696000000
C	  36.7137000000	   9.7808600000	  21.7253000000
C	  35.6080000000	   9.0183700000	  22.4259000000
C	  35.2667000000	   9.0716100000	  20.1982000000
H	  37.5844000000	   9.1688600000	  21.4349000000
H	  37.0032000000	  10.6953000000	  22.2749000000
H	  35.9425000000	   8.3051400000	  23.1606000000
H	  34.9194000000	   9.6783100000	  22.8555000000
H	  34.4471000000	   9.3683300000	  19.5592000000
H	  35.9915000000	   8.3441700000	  19.7280000000
O	  36.6447000000	   6.1111500000	  21.5751000000
O	  37.9647000000	   6.4968900000	  19.9345000000
C	  35.9932000000	   5.4265000000	  20.4573000000
C	  37.0425000000	   5.6046500000	  19.3349000000
C	  37.9574000000	   6.2092200000	  21.2210000000
H	  35.7677000000	   4.3434700000	  20.6364000000
H	  35.0472000000	   5.9659500000	  20.3942000000
H	  37.5815000000	   4.7251700000	  19.0807000000
H	  36.6981000000	   6.0302400000	  18.4421000000
H	  38.3978000000	   6.8990100000	  21.8815000000
H	  38.5208000000	   5.2788300000	  21.3511000000
N	  30.6724000000	   6.3101500000	  18.8738000000
S	  31.8756000000	   7.3904100000	  18.8700000000
O	  31.3793000000	   8.7311000000	  18.6184000000
O	  32.8537000000	   7.1655600000	  19.8994000000
C	  32.7991000000	   7.0750300000	  17.2790000000
F	  33.9565000000	   7.8434600000	  17.2553000000
F	  32.1925000000	   7.3298500000	  16.1367000000
F	  33.1629000000	   5.7887000000	  17.1532000000
S	  30.7299000000	   4.8890500000	  19.5484000000
O	  29.5456000000	   4.5867600000	  20.3842000000
O	  32.0828000000	   4.5083000000	  20.0375000000
C	  30.4444000000	   3.8139200000	  18.0752000000
F	  31.3488000000	   3.8966600000	  17.1374000000
F	  30.5275000000	   2.6017700000	  18.5726000000
F	  29.2514000000	   3.9789300000	  17.4457000000
S	  31.1492000000	  14.6009000000	  21.1418000000
S	  31.3617000000	  12.5590000000	  21.7173000000
S	  33.0320000000	  12.2817000000	  22.9586000000
S	  33.0073000000	   8.3962100000	  25.0951000000
S	  34.4902000000	   6.8810600000	  25.1025000000
S	  34.0693000000	   5.6560500000	  23.3913000000
S	  33.7236000000	  10.2868000000	  25.7101000000
S	  32.5429000000	  11.8210000000	  25.0209000000
