43

Li	   4.9127100000	  28.2732000000	  22.7894000000
O	   7.7772900000	  25.5104000000	  22.7134000000
O	   6.0466200000	  26.7178000000	  23.5313000000
C	   8.2877000000	  26.8211000000	  22.9488000000
C	   7.1993600000	  27.5485000000	  23.7678000000
C	   6.6331000000	  25.4822000000	  23.4853000000
H	   9.2469300000	  26.6518000000	  23.5426000000
H	   8.6907000000	  27.2955000000	  22.0965000000
H	   7.5593500000	  27.4730000000	  24.8366000000
H	   7.0638600000	  28.5999000000	  23.5865000000
H	   6.0374300000	  24.5744000000	  23.2409000000
H	   6.8817600000	  25.2610000000	  24.5525000000
N	   0.8358950000	  26.9369000000	  23.4788000000
S	   2.1038100000	  26.4520000000	  22.5805000000
O	   1.7376300000	  26.0797000000	  21.2073000000
O	   3.2270300000	  27.3407000000	  22.7189000000
C	   2.5499000000	  24.9217000000	  23.4790000000
F	   3.6383100000	  24.3760000000	  23.0093000000
F	   1.6312000000	  23.9870000000	  23.4346000000
F	   2.7568900000	  25.1535000000	  24.8172000000
S	  -0.6869921069	  27.0005000000	  22.9925000000
O	  -0.8765921069	  26.6170000000	  21.6321000000
O	  -1.3953921069	  28.1331000000	  23.4836000000
C	  -1.4251921069	  25.5750000000	  23.9751000000
F	  -2.7208921069	  25.5535000000	  24.1659000000
F	  -1.0390921069	  24.4094000000	  23.5377000000
F	  -0.9649921069	  25.6936000000	  25.2134000000
S	   2.3470100000	  32.7787000000	  27.2728000000
S	   4.2197800000	  32.8292000000	  28.3317000000
S	   4.1133900000	  31.8208000000	  30.2072000000
S	   4.8994700000	  27.9420000000	  27.5430000000
S	   3.6668700000	  28.3841000000	  25.9184000000
S	   4.5619400000	  29.8495000000	  24.6552000000
S	   3.9934900000	  28.3976000000	  29.4170000000
S	   5.1387900000	  29.9144000000	  30.3183000000
S	   5.8345300000	  28.1749000000	  20.8168000000
S	   6.2289400000	  30.1467000000	  21.5822000000
S	   5.7138300000	  31.5806000000	  20.2215000000
S	   0.4337078931	  31.2135000000	  19.3093000000
S	  -0.5548921069	  29.5298000000	  20.1421000000
S	  -2.3163921069	  30.2256000000	  21.0415000000
S	   2.4801100000	  30.7225000000	  19.1088000000
S	   3.6387600000	  31.9268000000	  20.4252000000
