61

Li	  43.3002000000	   7.8833900000	  44.3987000000
N	  39.5255000000	   7.0324500000	  44.7656000000
S	  39.8559000000	   8.4788500000	  45.3616000000
O	  39.5770000000	   8.5459800000	  46.7896000000
O	  41.0761000000	   9.0721600000	  44.9608000000
C	  38.5464000000	   9.5464600000	  44.6020000000
F	  38.8408000000	  10.8032000000	  44.9864000000
F	  37.2703000000	   9.2801600000	  44.8533000000
F	  38.7568000000	   9.4518000000	  43.2627000000
S	  40.6014000000	   5.8667900000	  44.5959000000
O	  40.2160000000	   4.6573400000	  45.2375000000
O	  41.9921000000	   6.3500200000	  44.6362000000
C	  40.5625000000	   5.3961400000	  42.7981000000
F	  41.6339000000	   4.7117600000	  42.4062000000
F	  39.4985000000	   4.6274300000	  42.5300000000
F	  40.4894000000	   6.4260200000	  41.9488000000
N	  47.1317000000	   6.2616200000	  44.1982000000
S	  45.8801000000	   6.3311000000	  43.2605000000
O	  44.7464000000	   6.8809100000	  43.9070000000
O	  46.1058000000	   6.8083800000	  41.9091000000
C	  45.4658000000	   4.5888200000	  42.9380000000
F	  44.2769000000	   4.4684100000	  42.3623000000
F	  45.4759000000	   3.8896300000	  44.0158000000
F	  46.2703000000	   4.0137500000	  42.0481000000
S	  47.5397000000	   7.2841000000	  45.2548000000
O	  46.9984000000	   7.0422000000	  46.5419000000
O	  47.4795000000	   8.6460200000	  44.7455000000
C	  49.3182000000	   6.9008400000	  45.4347000000
F	  49.4505000000	   5.6812900000	  45.9664000000
F	  49.9199000000	   6.7171100000	  44.2912000000
F	  49.9678000000	   7.7332300000	  46.1846000000
N	  44.0609000000	   9.5219300000	  47.7285000000
S	  44.6373000000	  10.0070000000	  46.3171000000
O	  46.0210000000	  10.3380000000	  46.3687000000
O	  44.1314000000	   9.3600800000	  45.1303000000
C	  43.8405000000	  11.6121000000	  46.0710000000
F	  44.2157000000	  12.1114000000	  44.9620000000
F	  44.0382000000	  12.5555000000	  47.0525000000
F	  42.5902000000	  11.4851000000	  45.9837000000
S	  43.4838000000	   8.1730900000	  48.2347000000
O	  44.1428000000	   6.9889900000	  47.7911000000
O	  42.0691000000	   8.2020200000	  48.3561000000
C	  44.1321000000	   8.2750200000	  49.9215000000
F	  44.0915000000	   7.0828300000	  50.4750000000
F	  45.3944000000	   8.5886300000	  49.9727000000
F	  43.4863000000	   9.1370600000	  50.6538000000
N	  44.1500000000	  10.5175000000	  41.4217000000
S	  45.7112000000	  10.5113000000	  41.7096000000
O	  46.1413000000	  10.7926000000	  43.0575000000
O	  46.4749000000	   9.4147600000	  41.0142000000
C	  46.2036000000	  12.0942000000	  40.9155000000
F	  45.8203000000	  12.1107000000	  39.6205000000
F	  47.5107000000	  12.3856000000	  40.8989000000
F	  45.6148000000	  13.1403000000	  41.4674000000
S	  43.2429000000	   9.2163200000	  41.3064000000
O	  42.8707000000	   8.5839500000	  42.5996000000
O	  43.6542000000	   8.2845700000	  40.2557000000
C	  41.6066000000	   9.8086900000	  40.7344000000
F	  40.7913000000	   8.7820600000	  40.7562000000
F	  41.1412000000	  10.7740000000	  41.5409000000
F	  41.5006000000	  10.2893000000	  39.4607000000
