68

Li	  40.9390000000	  56.9942000000	  28.6399000000
O	  45.0527000000	  56.6410000000	  29.8423000000
O	  42.9721000000	  56.5324000000	  28.8627000000
C	  44.6698000000	  55.2787000000	  29.9129000000
C	  43.1506000000	  55.3907000000	  29.7120000000
C	  44.2529000000	  57.1384000000	  28.8306000000
H	  45.1658000000	  54.5726000000	  29.1898000000
H	  44.9194000000	  54.8957000000	  30.9036000000
H	  42.5789000000	  54.4734000000	  29.3891000000
H	  42.8022000000	  55.5612000000	  30.6917000000
H	  44.0764000000	  58.1827000000	  28.9356000000
H	  44.7571000000	  56.9729000000	  27.8531000000
O	  40.7603000000	  57.2958000000	  30.5893000000
O	  38.7788000000	  57.6652000000	  31.5584000000
C	  40.9287000000	  58.5386000000	  31.1143000000
C	  39.5374000000	  58.8987000000	  31.6773000000
C	  39.6840000000	  56.7439000000	  31.1884000000
H	  41.5945000000	  58.6856000000	  31.9535000000
H	  41.3222000000	  59.2207000000	  30.3141000000
H	  39.5489000000	  59.3514676449	  32.6555000000
H	  39.0053000000	  59.5902716449	  30.9967000000
H	  39.2158000000	  56.0619000000	  30.4836000000
H	  39.9462000000	  56.1762000000	  32.1051000000
N	  38.9096000000	  55.1433000000	  26.2690000000
S	  39.9437000000	  54.3818000000	  27.1490000000
O	  40.6316000000	  53.2863000000	  26.4608000000
O	  40.6992000000	  55.2253000000	  28.1129000000
C	  38.8196000000	  53.5398000000	  28.2462000000
F	  38.1253000000	  54.3552000000	  29.0048000000
F	  39.4701000000	  52.7396000000	  29.0810000000
F	  37.8953000000	  52.8272000000	  27.6000000000
S	  38.8680000000	  55.2685000000	  24.7142000000
O	  39.4413000000	  54.1494000000	  23.9879000000
O	  39.0481000000	  56.5696000000	  24.1236000000
C	  37.0227000000	  55.0512000000	  24.5355000000
F	  36.4805000000	  53.8702000000	  24.8519000000
F	  36.3079000000	  55.9092000000	  25.3184000000
F	  36.6851000000	  55.3208000000	  23.2857000000
N	  38.0354000000	  59.9251686449	  28.1381000000
S	  38.6141000000	  61.1581986449	  27.4125000000
O	  39.2959000000	  61.0016186449	  26.1078000000
O	  37.7322000000	  62.3014586449	  27.6489000000
C	  40.1108000000	  61.6085286449	  28.4258000000
F	  39.7549000000	  61.8660386449	  29.6463000000
F	  40.8407000000	  62.5909586449	  27.9996000000
F	  40.9235000000	  60.5829886449	  28.4345000000
S	  38.0665000000	  58.4854000000	  27.5958000000
O	  39.0624000000	  57.7405000000	  28.3549000000
O	  38.0003000000	  58.4090000000	  26.1437000000
C	  36.4403000000	  57.7953000000	  28.0870000000
F	  36.4036000000	  56.5125000000	  27.8051000000
F	  36.2228000000	  57.8449000000	  29.3338000000
F	  35.3908000000	  58.3946000000	  27.5645000000
N	  42.7824000000	  56.8452000000	  25.2875000000
S	  42.6076000000	  55.9573000000	  24.0319000000
O	  41.9865000000	  54.6535000000	  24.3020000000
O	  42.1897000000	  56.6125000000	  22.7971000000
C	  44.2562000000	  55.5430000000	  23.6526000000
F	  44.8773000000	  55.0804000000	  24.6760000000
F	  44.9214000000	  56.6733000000	  23.3378000000
F	  44.4387000000	  54.7333000000	  22.6673000000
S	  41.9857000000	  58.1262000000	  25.6833000000
O	  41.5655000000	  58.1852000000	  27.0946000000
O	  41.0261000000	  58.5328000000	  24.7050000000
C	  43.2525000000	  59.3876566449	  25.5747000000
F	  43.6691000000	  59.6158476449	  24.3217000000
F	  42.8412000000	  60.5501386449	  25.9879000000
F	  44.4049000000	  59.1972000000	  26.2493000000
