46

Li	  34.4848000000	  54.0462000000	  16.4287000000
O	  38.2704000000	  52.4405000000	  16.6845000000
O	  36.0541000000	  52.9278000000	  16.7056000000
C	  37.9512000000	  52.7747000000	  18.0037000000
C	  36.4299000000	  52.9198000000	  18.0330000000
C	  37.0637000000	  52.2201000000	  16.0448000000
H	  38.4475000000	  51.9521000000	  18.5503000000
H	  38.3549000000	  53.6804000000	  18.3147000000
H	  35.9558000000	  52.0336000000	  18.5187000000
H	  36.1648000000	  53.8391000000	  18.6258000000
H	  37.1160000000	  52.4751000000	  14.9948000000
H	  36.7649000000	  51.1621000000	  15.9620000000
F	  35.8404000000	  60.5130186449	  21.5147000000
F	  34.8644000000	  59.2574000000	  22.9165000000
F	  35.8224000000	  57.0283000000	  18.5092000000
F	  34.5859000000	  55.8309000000	  19.8675000000
F	  38.1952000000	  59.3002000000	  22.2145000000
F	  37.0525000000	  60.1816586449	  23.7913000000
F	  33.6427000000	  58.4362000000	  17.5555000000
F	  33.5632000000	  56.1831000000	  17.2528000000
O	  34.5985000000	  58.0741000000	  20.0625000000
C	  35.8497000000	  59.3265196449	  22.0192000000
C	  35.7378000000	  58.2000000000	  20.9968000000
C	  34.7248000000	  57.0003000000	  19.2130000000
C	  37.0648000000	  59.2075000000	  22.9081000000
C	  33.6398000000	  57.2011000000	  18.1432000000
H	  36.6049000000	  58.3970000000	  20.3797000000
H	  35.7880000000	  57.2348000000	  21.5014000000
H	  37.0666000000	  58.2397000000	  23.4247000000
H	  32.7604000000	  57.1761000000	  18.6573000000
S	  33.1310000000	  53.0340000000	  17.6820000000
S	  32.1344000000	  53.0458000000	  15.8348000000
S	  31.9488000000	  51.0907000000	  15.1477000000
S	  30.2657000000	  47.4654000000	  13.0702000000
S	  31.6663000000	  47.0638000000	  11.4120000000
S	  30.8459000000	  46.3898000000	   9.6447500000
S	  29.7229000000	  49.4812000000	  13.0912000000
S	  29.9114000000	  50.4036000000	  14.8731000000
S	  33.7318000000	  56.4658000000	  11.4649000000
S	  34.8460000000	  57.2956000000	   9.8271200000
S	  36.8058000000	  56.3933000000	   9.7400900000
S	  37.2318000000	  57.3181000000	  14.0859000000
S	  36.3344000000	  55.8373000000	  15.3007000000
S	  34.5086000000	  55.0467000000	  14.7134000000
S	  38.5526000000	  56.4409000000	  12.7421000000
S	  38.2086000000	  57.3760000000	  10.8724000000
