46

Li	  44.7156000000	  16.4291000000	  29.2736000000
O	  48.5382000000	  17.5910000000	  28.0904000000
O	  46.4978000000	  16.9380000000	  28.9360000000
C	  48.5456000000	  17.5328000000	  29.5189000000
C	  47.4877000000	  16.5192000000	  29.7885000000
C	  47.1941000000	  17.2797000000	  27.7324000000
H	  49.5540000000	  17.2319000000	  29.9336000000
H	  48.2622000000	  18.5040000000	  29.9441000000
H	  47.8276000000	  15.5286000000	  29.4628000000
H	  47.1585000000	  16.5507000000	  30.8110000000
H	  46.8575000000	  18.0572000000	  27.1433000000
H	  47.1948000000	  16.4403000000	  27.0460000000
O	  45.0715000000	  15.7778000000	  25.5387000000
O	  44.1687000000	  16.3980000000	  27.4561000000
C	  44.4405000000	  17.0347000000	  25.3414000000
C	  43.5480000000	  17.2798000000	  26.5727000000
C	  44.4241000000	  15.2604000000	  26.6530000000
H	  45.1616000000	  17.7379000000	  25.4106000000
H	  44.0089000000	  17.0907000000	  24.3548000000
H	  43.5726000000	  18.3328000000	  27.0235000000
H	  42.4998000000	  17.0886000000	  26.3501000000
H	  43.5315000000	  14.8532000000	  26.2612000000
H	  45.0613000000	  14.4734000000	  26.9731000000
N	  43.1704000000	  13.3698000000	  31.2717000000
S	  42.0505000000	  14.1396000000	  30.5572000000
O	  42.3131000000	  15.4749000000	  30.0730000000
O	  41.2791000000	  13.3273000000	  29.7427000000
C	  40.9657000000	  14.3920000000	  31.9322000000
F	  41.6027000000	  14.8200000000	  32.9886000000
F	  40.3182000000	  13.3165000000	  32.2772000000
F	  39.9730000000	  15.2242000000	  31.5619000000
S	  44.6904000000	  13.6646000000	  31.1536000000
O	  45.2978000000	  13.6128000000	  32.4966000000
O	  45.1053000000	  14.7636000000	  30.2834000000
C	  45.1043000000	  12.2004000000	  30.2403000000
F	  46.4600000000	  12.1731000000	  30.0541000000
F	  44.8376000000	  11.0788000000	  30.9115000000
F	  44.5852000000	  12.0862000000	  29.0316000000
S	  43.9712000000	  18.2200000000	  30.1413000000
S	  43.7132000000	  20.2767000000	  29.6720000000
S	  44.9466000000	  21.4264000000	  30.8390000000
S	  43.5896000000	  24.1161000000	  35.3037000000
S	  44.4394000000	  26.0281000000	  35.3453000000
S	  43.4891000000	  27.2786000000	  33.8598000000
S	  44.6807000000	  23.0526000000	  33.8632000000
S	  43.7055000000	  22.6160000000	  32.0188000000
