43

Li	  36.5734000000	  57.4680000000	  13.1841000000
O	  38.1230000000	  56.9728000000	  14.1563000000
O	  40.1219000000	  56.0815000000	  14.8221000000
C	  37.9758000000	  56.6084000000	  15.5225000000
C	  39.4687000000	  56.4107000000	  16.0219000000
C	  39.4620000000	  56.7107000000	  13.7448000000
H	  37.4122000000	  57.3414000000	  16.0234000000
H	  37.4683000000	  55.6559000000	  15.5651000000
H	  39.8900000000	  57.3123000000	  16.4290000000
H	  39.5862000000	  55.5896000000	  16.7446000000
H	  39.5128000000	  56.1748000000	  12.8141000000
H	  40.0006000000	  57.6181000000	  13.5550000000
N	  33.5414000000	  58.2779000000	  16.3944000000
S	  32.9406000000	  57.0209000000	  17.0209000000
O	  31.7170000000	  57.2802000000	  17.7659000000
O	  32.9638000000	  55.8878000000	  16.1443000000
C	  34.1503000000	  56.6180000000	  18.3276000000
F	  33.9495000000	  55.3873000000	  18.8002000000
F	  34.2093000000	  57.4741000000	  19.3573000000
F	  35.3204000000	  56.6151000000	  17.7968000000
S	  33.9575000000	  58.4290000000	  14.8525000000
O	  33.0290000000	  57.8541000000	  13.8638000000
O	  35.3538000000	  58.2476000000	  14.4760000000
C	  33.6035000000	  60.2205486449	  14.6246000000
F	  33.8053000000	  60.5728686449	  13.3963000000
F	  32.3539000000	  60.5398786449	  14.9490000000
F	  34.3935000000	  60.9891586449	  15.3866000000
S	  35.2755000000	  55.4161000000	  13.3088000000
S	  36.0635000000	  54.0261000000	  11.8800000000
S	  35.2171000000	  52.1895000000	  11.7806000000
S	  31.1219000000	  50.6226000000	   8.8173500000
S	  29.7411000000	  49.2067000000	   9.1662900000
S	  27.8472000000	  50.1184000000	   9.2973600000
S	  32.3226000000	  51.1565000000	  10.5459000000
S	  34.1908000000	  51.8428000000	   9.9336300000
S	  35.3974000000	  60.7304486449	   9.1269200000
S	  36.4507000000	  61.6025086449	   7.4535200000
S	  37.1711000000	  60.0855486449	   6.1759600000
S	  39.2717000000	  57.9963000000	   9.7783200000
S	  37.4691000000	  57.6784000000	  10.7962000000
S	  36.8989000000	  59.3337406449	  11.9949000000
S	  39.3347000000	  57.6882000000	   7.6750700000
S	  39.1950000000	  59.4918506449	   6.6221300000
