28

Li	  48.0966000000	  24.4565000000	  41.3740000000
O	  47.3656000000	  24.8483000000	  39.7190000000
O	  46.4488000000	  23.6885000000	  37.9449000000
C	  46.1088000000	  25.5097000000	  39.4561000000
C	  45.3872000000	  24.4390000000	  38.6238000000
C	  47.6847000000	  24.1642000000	  38.5213000000
H	  45.5774000000	  25.6553000000	  40.3427000000
H	  46.2739000000	  26.3586000000	  38.7713000000
H	  44.8558000000	  23.7520000000	  39.2219000000
H	  44.7013000000	  24.9727000000	  38.0662000000
H	  48.2407000000	  24.8259000000	  37.8301000000
H	  48.3129000000	  23.2900000000	  38.6950000000
S	  41.1900000000	  18.6285000000	  40.3333000000
S	  42.5253000000	  20.2806000000	  40.0990000000
S	  41.5708000000	  22.1252000000	  40.4646000000
S	  45.3297000000	  22.8029000000	  43.1306000000
S	  46.5412000000	  22.2145000000	  41.4507000000
S	  48.6006000000	  22.3590000000	  41.8382000000
S	  43.6219000000	  23.9364000000	  42.4399000000
S	  41.9484000000	  22.7109000000	  42.4660000000
S	  47.3792000000	  26.2561000000	  42.4149000000
S	  49.4905000000	  26.1651000000	  42.0428000000
S	  49.8895000000	  26.7595000000	  40.0966000000
S	  52.0121000000	  28.0431000000	  36.3975000000
S	  52.1336000000	  26.2163000000	  35.3910000000
S	  53.5102000000	  26.2834000000	  33.8889000000
S	  52.6004000000	  28.2529000000	  38.4107000000
S	  51.0314000000	  28.5604000000	  39.8936000000
