28

Li	  32.5436000000	  13.6226000000	   8.1320400000
O	  31.2701000000	  12.4182000000	   8.8405800000
O	  30.1211000000	  11.2815000000	  10.3580000000
C	  30.3801000000	  11.6362000000	   8.0759300000
C	  29.9070000000	  10.6131000000	   9.1180300000
C	  30.6784000000	  12.5155000000	  10.1093000000
H	  29.4940000000	  12.2242000000	   7.7551800000
H	  30.9272000000	  11.2594000000	   7.2263600000
H	  28.9563000000	  10.1845000000	   8.9510100000
H	  30.5874000000	   9.7606700000	   9.0476000000
H	  31.2652000000	  12.5667000000	  10.9720000000
H	  29.9365000000	  13.2977000000	  10.2156000000
S	  31.9547000000	   5.6217300000	  10.2990000000
S	  33.7144000000	   6.8226900000	   9.8513800000
S	  33.4496000000	   8.8146500000	   9.0892200000
S	  33.6904000000	  13.8452000000	  10.6628000000
S	  33.5804000000	  15.5242000000	   9.4522500000
S	  31.7041000000	  15.5303000000	   8.4679900000
S	  34.7621000000	  12.2386000000	   9.7410300000
S	  33.7189000000	  10.4816000000	  10.4337000000
S	  33.9864000000	  13.0869000000	   6.3962800000
S	  32.4134000000	  12.3032000000	   5.1919300000
S	  32.1642000000	  10.2153000000	   5.3394900000
S	  35.8475000000	   7.9362100000	   2.0188000000
S	  35.2876000000	   6.0275400000	   1.1667200000
S	  36.3058000000	   4.4153800000	   2.2474100000
S	  34.8107000000	   8.6216000000	   3.7748200000
S	  32.8438000000	   9.4151100000	   3.5650100000
