42

Li	  28.9786000000	  32.0229000000	   2.1910100000
O	  30.2984000000	  30.8303000000	   2.4385000000
O	  31.7296000000	  29.3486000000	   3.3423500000
C	  31.6242000000	  31.0305000000	   1.8239600000
C	  32.5565000000	  30.0493000000	   2.4283700000
C	  30.4207000000	  29.4558000000	   2.9420600000
H	  31.6451000000	  30.8758000000	   0.7680590000
H	  31.9169000000	  32.0781000000	   1.9254400000
H	  32.9593000000	  29.3762000000	   1.6658800000
H	  33.2504000000	  30.3996000000	   3.1407100000
H	  29.7428000000	  29.4920000000	   3.8149700000
H	  30.2786000000	  28.7529000000	   2.0896100000
N	  29.3176000000	  36.0910000000	   2.9310200000
S	  28.1011000000	  36.9706000000	   3.3159300000
O	  27.1218000000	  37.1517000000	   2.3388600000
O	  27.7485000000	  36.7844000000	   4.7377400000
C	  28.8539000000	  38.5704000000	   3.2126700000
F	  27.8982000000	  39.5044000000	   3.4817800000
F	  29.3857000000	  38.8991000000	   1.9956800000
F	  29.7816000000	  38.7055000000	   4.1037400000
S	  29.6361000000	  34.6758000000	   3.4551100000
O	  29.8494000000	  33.6288000000	   2.4501700000
O	  28.9843000000	  34.2134000000	   4.6438300000
C	  31.3704000000	  34.9036000000	   4.0247200000
F	  32.0726000000	  35.4928000000	   3.1042900000
F	  31.3852000000	  35.7652000000	   5.0314900000
F	  31.9602000000	  33.8080000000	   4.4694900000
N	  26.6041000000	  32.0834000000	   5.6258300000
S	  26.7153000000	  33.0196000000	   6.8610700000
O	  27.6512000000	  32.5759000000	   7.8722100000
O	  26.6314000000	  34.3749000000	   6.4707900000
C	  25.0973000000	  32.8739000000	   7.6223800000
F	  25.1009000000	  33.3464000000	   8.8085600000
F	  24.7576000000	  31.5676000000	   7.7577300000
F	  24.1362000000	  33.3856000000	   6.8973600000
S	  27.6861000000	  31.1889000000	   5.1187400000
O	  28.8221000000	  31.0201000000	   6.0445400000
O	  28.0109000000	  31.3542000000	   3.6961300000
C	  26.9327000000	  29.5298000000	   5.2528900000
F	  25.9178000000	  29.2927000000	   4.3840900000
F	  27.9129000000	  28.6253000000	   4.9886300000
F	  26.5164000000	  29.2456000000	   6.4901000000
