31

Li	  19.0341000000	  41.1902000000	  22.1004000000
O	  16.6831000000	  43.3987000000	  19.9629000000
O	  17.8832000000	  41.5819000000	  20.5986000000
C	  16.8118000000	  42.7110000000	  18.7713000000
C	  17.8433000000	  41.6209000000	  19.1828000000
C	  17.0150000000	  42.5403000000	  21.0465000000
H	  15.8094000000	  42.3477000000	  18.5832000000
H	  17.1826000000	  43.4171000000	  18.0593000000
H	  17.5746000000	  40.6291000000	  18.7519000000
H	  18.8812000000	  41.8071000000	  18.7055000000
H	  17.2016000000	  43.2391000000	  21.8968000000
H	  16.0786000000	  41.9750000000	  21.3024000000
O	  18.7870000000	  41.3354000000	  23.9422000000
O	  19.6478000000	  40.6011000000	  25.9242000000
C	  17.7177000000	  40.8242000000	  24.7063000000
C	  18.2490000000	  40.6576000000	  26.1614000000
C	  19.8160000000	  41.4551000000	  24.9150000000
H	  16.8522000000	  41.4795000000	  24.7185000000
H	  17.3741000000	  39.9380000000	  24.3186000000
H	  17.9406000000	  41.5575000000	  26.7002000000
H	  17.8534000000	  39.7661000000	  26.5568000000
H	  20.8027000000	  41.3064000000	  24.4615000000
H	  19.8454000000	  42.4886000000	  25.2668000000
S	  14.1560000000	  33.8084000000	  24.9097000000
S	  16.1731000000	  33.8892000000	  24.3860000000
S	  16.4647000000	  35.4202000000	  22.9369000000
S	  19.6300000000	  38.5003000000	  21.2194000000
S	  21.2993000000	  39.7437000000	  20.9788000000
S	  20.8276000000	  41.7837000000	  21.5343000000
S	  19.3636000000	  37.4170000000	  23.1266000000
S	  17.3747000000	  37.0655000000	  23.7899000000
