64

Li	  31.0130000000	  13.9609000000	  23.2565000000
O	  30.2868000000	  14.8218000000	  21.9159000000
O	  30.6103000000	  15.2391000000	  19.8213000000
C	  29.2697000000	  14.0825000000	  21.2783000000
C	  29.5180000000	  14.3852000000	  19.8567000000
C	  30.6052000000	  15.8660000000	  20.9943000000
H	  29.2948000000	  13.0009000000	  21.5862000000
H	  28.3467000000	  14.5101000000	  21.5669000000
H	  29.6111000000	  13.4668000000	  19.2541000000
H	  28.5791000000	  14.8753000000	  19.5013000000
H	  30.0100000000	  16.7471000000	  21.0074000000
H	  31.6268000000	  16.1736000000	  21.2070000000
O	  33.5875000000	  14.9751000000	  26.1265000000
O	  31.8183000000	  14.5582000000	  24.7325000000
C	  32.8046000000	  16.1166000000	  26.1077000000
C	  31.7377000000	  15.8946000000	  25.0413000000
C	  32.6049000000	  14.0176000000	  25.8326000000
H	  32.2567000000	  16.2450000000	  27.0504000000
H	  33.4364000000	  16.9490000000	  25.8777000000
H	  30.7244000000	  16.0038000000	  25.4141000000
H	  31.7738000000	  16.3824000000	  24.1391000000
H	  32.9709000000	  12.9943000000	  25.4950000000
H	  31.9507000000	  13.8377000000	  26.7108000000
O	  33.3011000000	  14.1240000000	  22.1356000000
O	  34.0006000000	  14.0381000000	  19.9992000000
C	  34.6299000000	  14.5429000000	  22.2840000000
C	  34.8907000000	  14.8497000000	  20.8010000000
C	  33.2813000000	  13.4205000000	  20.9646000000
H	  34.8340000000	  15.4283000000	  22.8911000000
H	  35.1915000000	  13.7292000000	  22.7856000000
H	  34.7421000000	  15.9169000000	  20.6486000000
H	  35.9673000000	  14.7225000000	  20.8047000000
H	  33.7323000000	  12.4517000000	  21.2558000000
H	  32.3104000000	  13.1906000000	  20.5127000000
N	  31.5145000000	   9.6551700000	  24.3335000000
S	  32.1199000000	  10.6201000000	  23.2529000000
O	  31.6769000000	  11.9923000000	  23.4096000000
O	  33.5177000000	  10.3521000000	  22.9119000000
C	  31.2753000000	   9.9633900000	  21.7351000000
F	  29.9573000000	  10.0398000000	  21.7591000000
F	  31.6426000000	   8.6699100000	  21.4234000000
F	  31.6343000000	  10.7114000000	  20.7405000000
S	  32.1154000000	   9.4115400000	  25.7462000000
O	  32.3048000000	  10.6020000000	  26.5100000000
O	  33.1401000000	   8.3544700000	  25.8320000000
C	  30.7322000000	   8.5791900000	  26.6409000000
F	  29.5744000000	   9.2252500000	  26.4590000000
F	  30.6223000000	   7.3066900000	  26.3052000000
F	  30.9519000000	   8.5902100000	  27.9691000000
N	  27.2194000000	  14.0124000000	  25.6650000000
S	  26.9557000000	  15.4237000000	  25.1184000000
O	  26.0168000000	  16.1365000000	  25.9316000000
O	  28.1013000000	  16.1206000000	  24.5682000000
C	  25.9279000000	  15.0135000000	  23.7612000000
F	  26.4829000000	  14.1663000000	  22.8924000000
F	  25.6641000000	  16.0947000000	  23.0600000000
F	  24.7438000000	  14.4741000000	  24.1019000000
S	  28.4463000000	  13.0946000000	  25.3779000000
O	  29.2103000000	  12.9767000000	  26.5960000000
O	  29.2623000000	  13.2858000000	  24.1959000000
C	  27.7185000000	  11.4768000000	  25.0221000000
F	  28.5968000000	  10.6932000000	  24.4473000000
F	  27.2814000000	  10.9394000000	  26.1254000000
F	  26.7405000000	  11.4892000000	  24.2210000000
