38

Li	  29.7301000000	  30.9946000000	  52.6678000000
O	  28.3470000000	  29.8504000000	  51.9466000000
O	  27.2366000000	  28.2273000000	  50.8668000000
C	  28.5143000000	  30.2384000000	  50.6077000000
C	  27.8688000000	  29.0479000000	  49.8773000000
C	  27.3273000000	  28.9229000000	  52.0666000000
H	  27.8870000000	  31.1403000000	  50.3672000000
H	  29.5179000000	  30.3421000000	  50.2990000000
H	  27.2883000000	  29.2218000000	  49.0167000000
H	  28.5789000000	  28.3777000000	  49.4893000000
H	  27.4316000000	  28.2672000000	  52.8911000000
H	  26.3562000000	  29.4947000000	  52.0474000000
O	  33.0874000000	  28.8441000000	  52.1747000000
O	  31.3758000000	  29.9229000000	  53.0763000000
C	  33.3977000000	  29.0394000000	  53.5516000000
C	  32.4594000000	  30.1752000000	  53.9619000000
C	  31.7763000000	  29.2539000000	  51.9710000000
H	  32.8898000000	  28.1215000000	  53.9423000000
H	  34.4516000000	  29.1249000000	  53.7656000000
H	  32.0693000000	  30.1474000000	  54.9954000000
H	  32.7883000000	  31.1819000000	  53.8081000000
H	  31.7871000000	  29.7923000000	  51.0135000000
H	  31.0833000000	  28.4116000000	  51.9022000000
N	  29.1979000000	  34.4766000000	  52.7687000000
S	  29.1174000000	  35.3478000000	  54.0734000000
O	  28.5898000000	  34.7427000000	  55.2539000000
O	  30.1000000000	  36.3346000000	  54.2466000000
C	  27.6839000000	  36.2774000000	  53.5881000000
F	  26.9070000000	  35.6380000000	  52.6978000000
F	  28.0428000000	  37.4550000000	  53.0870000000
F	  26.8621000000	  36.5436000000	  54.5966000000
S	  30.4787000000	  33.8994000000	  52.1166000000
O	  30.2645000000	  32.5303000000	  51.7290000000
O	  31.7730000000	  34.2118000000	  52.7419000000
C	  30.5217000000	  34.7530000000	  50.4852000000
F	  31.5282000000	  34.3949000000	  49.7042000000
F	  29.3654000000	  34.5500000000	  49.7763000000
F	  30.6568000000	  36.0907000000	  50.6816000000
