57

Li	  45.4977000000	  32.7845000000	  37.0266000000
O	  46.5545000000	  29.0165000000	  36.5173000000
O	  45.6745000000	  31.0446000000	  36.5197000000
C	  45.5565000000	  28.9978000000	  35.5699000000
C	  45.5352000000	  30.4234000000	  35.2131000000
C	  46.5339000000	  30.1947000000	  37.2315000000
H	  45.8732000000	  28.3788000000	  34.6838000000
H	  44.5891000000	  28.6531000000	  36.0091000000
H	  46.4814000000	  30.7429000000	  34.6856000000
H	  44.7155000000	  30.6963000000	  34.7004000000
H	  46.1465000000	  29.9626000000	  38.1995000000
H	  47.4466000000	  30.5841000000	  37.4723000000
N	  42.1370000000	  34.6038000000	  37.3620000000
S	  43.0088000000	  34.6744000000	  36.0660000000
O	  44.2674000000	  33.9424000000	  36.2111000000
O	  42.2258000000	  34.4328000000	  34.9053000000
C	  43.5435000000	  36.4340000000	  35.9280000000
F	  44.5120000000	  36.7481000000	  36.7242000000
F	  42.5843000000	  37.3218000000	  36.0754000000
F	  44.0654000000	  36.7052000000	  34.7468000000
S	  42.1933000000	  33.4613000000	  38.4445000000
O	  42.3355000000	  33.9179000000	  39.8455000000
O	  42.9614000000	  32.2804000000	  38.1278000000
C	  40.4348000000	  33.0592000000	  38.3948000000
F	  39.8182000000	  34.1780000000	  38.6315000000
F	  39.9868000000	  32.5623000000	  37.2570000000
F	  39.9433000000	  32.2358000000	  39.3511000000
N	  47.5010000000	  36.0910000000	  35.6335000000
S	  47.9073000000	  34.6277000000	  35.6973000000
O	  49.3260000000	  34.3107000000	  35.7330000000
O	  47.0686000000	  33.8221000000	  36.5816000000
C	  47.4571000000	  34.0075000000	  34.0354000000
F	  46.1735000000	  34.1113000000	  33.7929000000
F	  47.7541000000	  32.7352000000	  33.8360000000
F	  48.0964000000	  34.6840000000	  33.1078000000
S	  48.3900000000	  37.3965000000	  35.7905000000
O	  49.7826000000	  37.0300000000	  36.0102000000
O	  47.7795000000	  38.3430000000	  36.6648000000
C	  48.3030000000	  38.1095000000	  34.1568000000
F	  49.1089000000	  39.1157000000	  34.0024000000
F	  48.5842000000	  37.1753000000	  33.2661000000
F	  47.0883000000	  38.4656000000	  33.9208000000
N	  47.2428000000	  34.7829000000	  39.8528000000
S	  46.0208000000	  33.8173000000	  40.0117000000
O	  44.9612000000	  34.3101000000	  40.9094000000
O	  45.5328000000	  33.2150000000	  38.7615000000
C	  46.7142000000	  32.4181000000	  40.9273000000
F	  47.6000000000	  31.7713000000	  40.2472000000
F	  45.8276000000	  31.5068000000	  41.2275000000
F	  47.2542000000	  32.7486000000	  42.0766000000
S	  47.2478000000	  36.3288000000	  40.2231000000
O	  47.0143000000	  36.5843000000	  41.6016000000
O	  46.7911000000	  37.3081000000	  39.2500000000
C	  49.0459000000	  36.5497000000	  40.1879000000
F	  49.4132000000	  37.7520000000	  40.6348000000
F	  49.7855000000	  35.7005000000	  40.8838000000
F	  49.4892000000	  36.4838000000	  38.9246000000
