43

Li	  22.3369000000	  18.2644000000	   6.9576900000
O	  24.1563000000	  20.4341000000	   9.6560100000
O	  22.4800000000	  19.2525000000	   8.5279900000
C	  23.1105000000	  21.3387000000	   9.3732300000
C	  21.9540000000	  20.3839000000	   9.1117500000
C	  23.8543000000	  19.3120000000	   8.9076800000
H	  22.9658000000	  21.8355000000	  10.3616000000
H	  23.4406000000	  22.0178000000	   8.5617000000
H	  21.5075000000	  20.1707000000	   9.9946000000
H	  21.2410000000	  20.8071000000	   8.4655600000
H	  24.4383000000	  19.3760000000	   7.9715200000
H	  24.0403000000	  18.4598000000	   9.5456200000
N	  18.8498000000	  16.9891000000	   8.4802000000
S	  19.0462000000	  17.4894000000	   7.0220300000
O	  20.3465000000	  18.0604000000	   6.6496500000
O	  18.3586000000	  16.6667000000	   6.0264900000
C	  17.9673000000	  18.9218000000	   7.0084200000
F	  18.2773000000	  19.7609000000	   7.9530800000
F	  16.6777000000	  18.7107000000	   7.2548200000
F	  18.0456000000	  19.4976000000	   5.8339000000
S	  19.2326000000	  15.5892000000	   9.0675400000
O	  20.4895000000	  15.5777000000	   9.7780100000
O	  18.9534000000	  14.5154000000	   8.2198400000
C	  18.1040000000	  15.4129000000	  10.5277000000
F	  18.0583000000	  14.1653000000	  10.9392000000
F	  18.4666000000	  16.2292000000	  11.5037000000
F	  16.8854000000	  15.7133000000	  10.2037000000
S	  23.0108000000	  16.1486000000	   7.4878900000
S	  25.0246000000	  15.5828000000	   6.9652900000
S	  26.4064000000	  16.9076000000	   7.9868900000
S	  29.8486000000	  14.8606000000	  11.6511000000
S	  31.3145000000	  15.7439000000	  12.8886000000
S	  30.7299000000	  16.2349000000	  14.8269000000
S	  29.3349000000	  16.2367000000	  10.0528000000
S	  27.2412000000	  15.9625000000	   9.6533900000
S	  23.2320000000	  18.6869000000	   5.0569500000
S	  22.4082000000	  20.4645000000	   4.3196100000
S	  22.3027000000	  21.8110000000	   5.9746700000
S	  26.1572000000	  25.4332000000	   6.9340800000
S	  26.1630000000	  26.2958000000	   8.7868800000
S	  26.0608000000	  28.4398000000	   8.7579600000
S	  25.3506000000	  23.4712000000	   6.8117000000
S	  23.5339000000	  23.5231000000	   5.7918300000
