34

Li	  47.3005000000	  30.3081000000	  38.4679000000
O	  48.8262000000	  28.9265000000	  41.9985000000
O	  47.5230000000	  29.4031000000	  40.0657000000
C	  47.7953000000	  29.7978000000	  42.3613000000
C	  46.7674000000	  29.6010000000	  41.1954000000
C	  48.6037000000	  28.6347000000	  40.6188000000
H	  47.3078000000	  29.5565000000	  43.2766000000
H	  48.2257000000	  30.7683000000	  42.5344000000
H	  45.9878000000	  28.7869000000	  41.1200000000
H	  46.2466000000	  30.5868000000	  40.9951000000
H	  49.5981000000	  28.9367000000	  40.2167000000
H	  48.5827000000	  27.5603000000	  40.3363000000
O	  45.5074000000	  30.8079000000	  38.6344000000
O	  43.6858000000	  30.3009000000	  37.3444000000
C	  44.8325000000	  32.0824000000	  38.4082000000
C	  43.6922000000	  31.7273000000	  37.3522000000
C	  44.4404000000	  29.8522000000	  38.3557000000
H	  44.3945000000	  32.2846000000	  39.3825000000
H	  45.5649000000	  32.9131000000	  38.1726000000
H	  42.6817000000	  32.1222000000	  37.5684000000
H	  43.9089000000	  31.9775000000	  36.2925000000
H	  44.8944000000	  28.9145000000	  37.9879000000
H	  43.7919000000	  29.6993000000	  39.2407000000
O	  48.6061000000	  31.6829000000	  38.7436000000
O	  48.1309000000	  33.8324000000	  38.5534000000
C	  49.3521000000	  32.1399000000	  37.6812000000
C	  48.6254000000	  33.4645000000	  37.3343000000
C	  48.3209000000	  32.8798000000	  39.4247000000
H	  50.3169000000	  32.4136000000	  38.1149000000
H	  49.2588000000	  31.4808000000	  36.7976000000
H	  49.3074000000	  34.2583000000	  36.9415000000
H	  47.7717000000	  33.1688000000	  36.7228000000
H	  47.3526000000	  32.7786000000	  40.0658000000
H	  49.2048000000	  33.1570000000	  40.0277000000
