39

Li	   8.2292400000	  34.3634000000	   8.9587300000
N	  12.1670000000	  35.7482000000	   7.9838300000
S	  11.6964000000	  35.4811000000	   9.4463100000
O	  12.1489000000	  36.5580000000	  10.3380000000
O	  10.2792000000	  35.1127000000	   9.5329200000
C	  12.6943000000	  34.0126000000	   9.8797600000
F	  12.4535000000	  32.9891000000	   9.0370800000
F	  12.2640000000	  33.5559000000	  11.0334000000
F	  13.9427000000	  34.1845000000	   9.8734500000
S	  13.2457000000	  36.8267000000	   7.4876500000
O	  14.4772000000	  36.2204000000	   6.9684300000
O	  13.3540000000	  38.0407000000	   8.2818800000
C	  12.4190000000	  37.4863000000	   5.9774800000
F	  13.1767000000	  38.3895000000	   5.3526200000
F	  12.1582000000	  36.5572000000	   5.1092800000
F	  11.3335000000	  38.1821000000	   6.2258200000
N	   7.2472600000	  34.4358000000	   5.7149500000
S	   6.6700000000	  35.4832000000	   6.7020300000
O	   5.2862000000	  35.2268000000	   6.8881600000
O	   7.4820300000	  35.8340000000	   7.8259100000
C	   6.6140100000	  37.0035000000	   5.7104700000
F	   6.1680200000	  38.1037000000	   6.3484000000
F	   5.9205900000	  36.7561000000	   4.6180500000
F	   7.7752300000	  37.3382000000	   5.2851300000
S	   8.4541900000	  33.5416000000	   5.9436600000
O	   8.3801800000	  32.3077000000	   5.2082000000
O	   8.8313900000	  33.4400000000	   7.3228900000
C	   9.7781400000	  34.4634000000	   5.1681700000
F	   9.7757600000	  35.7423000000	   5.3997600000
F	  11.0012000000	  33.9919000000	   5.4451200000
F	   9.5860300000	  34.3334000000	   3.8459000000
S	   9.4816900000	  38.9286000000	  18.3919000000
S	   9.7411500000	  38.9178000000	  16.3224000000
S	   8.0685500000	  38.2726000000	  15.2656000000
S	   8.5063100000	  34.1066000000	  11.8751000000
S	   6.6056900000	  34.0684000000	  10.8203000000
S	   6.4554600000	  32.7891000000	   9.1430600000
S	   8.8469900000	  36.0638000000	  12.5361000000
S	   8.1463800000	  36.3292000000	  14.5489000000
