49

Li	  52.5113000000	   9.8217800000	  50.2591000000
O	  48.7022000000	   8.5034900000	  47.6862000000
O	  50.4427000000	   8.7861800000	  49.1885000000
C	  48.1982000000	   8.3189100000	  48.9565000000
C	  49.4543000000	   7.9127700000	  49.7447000000
C	  50.0327000000	   8.7923600000	  47.8406000000
H	  47.6409000000	   9.0924500000	  49.3956000000
H	  47.3565000000	   7.6413300000	  48.8808000000
H	  49.4429000000	   8.0799800000	  50.8645000000
H	  49.6577000000	   6.7861100000	  49.6131000000
H	  50.5152000000	   8.0541000000	  47.2146000000
H	  50.2507000000	   9.7644100000	  47.4286000000
O	  53.2642000000	   8.5535000000	  49.0469000000
O	  53.3411000000	   6.8898800000	  47.4851000000
C	  54.0379000000	   9.0673600000	  47.9559000000
C	  54.2973000000	   7.8427300000	  47.0421000000
C	  53.2188000000	   7.1769600000	  48.8088000000
H	  53.4809000000	   9.8457500000	  47.3334000000
H	  54.9113000000	   9.4589000000	  48.2312000000
H	  54.3293000000	   7.9430800000	  45.9377000000
H	  55.3214000000	   7.4426100000	  47.3429000000
H	  53.9467000000	   6.7466200000	  49.4485000000
H	  52.2695000000	   6.8610600000	  49.2258000000
O	  51.5310000000	   9.2617000000	  51.6503000000
O	  52.5067000000	   9.6723900000	  53.6088000000
C	  51.8507000000	   7.9621400000	  52.1756000000
C	  52.3036000000	   8.2896100000	  53.6673000000
C	  51.5576000000	  10.1267000000	  52.7228000000
H	  50.9573000000	   7.4661600000	  52.1613000000
H	  52.6492000000	   7.4749400000	  51.5655000000
H	  51.6426000000	   7.9575700000	  54.4768000000
H	  53.2498000000	   7.7298700000	  53.7361000000
H	  51.7916000000	  11.2068000000	  52.4322000000
H	  50.5905000000	  10.1171000000	  53.2129000000
N	  54.0568000000	  13.2013000000	  50.6170000000
S	  54.8343000000	  12.0356000000	  51.3094000000
O	  54.1387000000	  10.8044000000	  51.1950000000
O	  56.2369000000	  12.1472000000	  51.0236000000
C	  54.7425000000	  12.5326000000	  53.0086000000
F	  55.3772000000	  13.5909000000	  53.3637000000
F	  55.1010000000	  11.5453000000	  53.7547000000
F	  53.4231000000	  12.7877000000	  53.2305000000
S	  52.9290000000	  13.0068000000	  49.5069000000
O	  52.1807000000	  14.2090000000	  49.4280000000
O	  52.2840000000	  11.6960000000	  49.5195000000
C	  53.9962000000	  13.0164000000	  47.9789000000
F	  54.6161000000	  14.1555000000	  47.6317000000
F	  54.9483000000	  12.1141000000	  48.1830000000
F	  53.3672000000	  12.5571000000	  46.9004000000
