50

Li	  18.0218000000	  10.6854000000	   7.9299900000
O	  19.4142000000	  10.5721000000	   6.5150900000
O	  21.6166000000	  10.3588000000	   6.8239200000
C	  19.7686000000	   9.4729100000	   5.7036700000
C	  21.2656000000	   9.1592800000	   6.1073500000
C	  20.5782000000	  11.3196000000	   6.7176000000
H	  19.1720000000	   8.6244400000	   5.8813700000
H	  19.7603000000	   9.6865900000	   4.6236400000
H	  21.4250000000	   8.3781100000	   6.8990300000
H	  21.9900000000	   8.9731200000	   5.3195900000
H	  20.8056000000	  11.9226000000	   5.8560900000
H	  20.3922000000	  11.8962000000	   7.6184600000
N	  18.1599000000	   8.2771500000	  11.5009000000
S	  19.3186000000	   8.9418800000	  10.6556000000
O	  18.9530000000	   9.7334100000	   9.5028900000
O	  20.2421000000	   9.5625800000	  11.4999000000
C	  20.2386000000	   7.5563600000	   9.8949400000
F	  19.5992000000	   7.0010200000	   8.8342100000
F	  20.4242000000	   6.5787300000	  10.8152000000
F	  21.4092000000	   7.9395300000	   9.4574200000
S	  16.6065000000	   8.5465600000	  11.4360000000
O	  16.2402000000	   9.2894800000	  10.2666000000
O	  16.1536000000	   8.9260000000	  12.7158000000
C	  15.9650000000	   6.8524200000	  11.1662000000
F	  16.1711000000	   5.9900800000	  12.1797000000
F	  14.6106000000	   6.8248000000	  10.9075000000
F	  16.4008000000	   6.3192400000	  10.0629000000
N	  18.6116000000	  14.3875000000	   7.2372700000
S	  19.6585000000	  15.0798000000	   6.4519200000
O	  20.6899000000	  15.7533000000	   7.2545000000
O	  20.0061000000	  14.3557000000	   5.2442000000
C	  18.6422000000	  16.4854000000	   5.8267200000
F	  17.5925000000	  16.0591000000	   5.2347900000
F	  19.4432000000	  17.2339000000	   4.9762700000
F	  18.1874000000	  17.2034000000	   6.7665000000
S	  18.6610000000	  13.7547000000	   8.6661100000
O	  19.9048000000	  14.0321000000	   9.3254500000
O	  18.1766000000	  12.4161000000	   8.7597100000
C	  17.3530000000	  14.7561000000	   9.4319800000
F	  17.5619000000	  16.0246000000	   9.3941400000
F	  16.1766000000	  14.5967000000	   8.8257900000
F	  17.2588000000	  14.3718000000	  10.6746000000
S	   8.3761700000	   4.9820200000	   5.3600800000
S	  10.0192000000	   5.6716300000	   6.5785700000
S	  11.5040000000	   4.2744100000	   6.8856900000
S	  14.4564000000	   8.1413100000	   7.0961500000
S	  16.4406000000	   8.9812900000	   7.0538100000
S	  16.3958000000	  11.0915000000	   6.5714100000
S	  14.7728000000	   6.0403800000	   6.7617800000
S	  13.2018000000	   4.9036200000	   5.7208800000
