45

Li	   9.5691400000	  41.8709000000	  11.7956000000
O	   8.7017200000	  44.4234000000	  10.5670000000
O	   7.9750000000	  42.3447000000	  10.9018000000
C	   9.3187500000	  43.6403000000	   9.5649100000
C	   8.3818200000	  42.4138000000	   9.5163000000
C	   7.6503700000	  43.6946000000	  11.1534000000
H	   9.3661500000	  44.1877000000	   8.5741900000
H	  10.3140000000	  43.3171000000	   9.9055200000
H	   7.5452300000	  42.5579000000	   8.8441800000
H	   8.8895800000	  41.5912000000	   9.1020900000
H	   7.5466800000	  43.6730000000	  12.2465000000
H	   6.6953200000	  43.9106000000	  10.7231000000
O	   8.2411400000	  40.1814000000	  12.9861000000
O	   6.1142500000	  39.5479000000	  13.3934000000
C	   8.2780100000	  38.8838000000	  13.5708000000
C	   6.9024200000	  38.8430000000	  14.3227000000
C	   6.9272700000	  40.2953000000	  12.6042000000
H	   8.4075600000	  38.2272000000	  12.6886000000
H	   9.1728600000	  38.7384000000	  14.1602000000
H	   6.4734700000	  37.8431000000	  14.5024000000
H	   6.8764000000	  39.4407000000	  15.2045000000
H	   6.5999600000	  41.2757000000	  12.7666000000
H	   6.8188800000	  40.1454000000	  11.5805000000
O	  10.4879000000	  42.8240000000	  13.1290000000
O	  12.7239000000	  43.2059000000	  13.4102000000
C	  10.9066000000	  41.8905000000	  14.0935000000
C	  12.3685000000	  42.3133000000	  14.4464000000
C	  11.4555000000	  43.7900000000	  13.0965000000
H	  10.2927000000	  41.9370000000	  14.9407000000
H	  10.7329000000	  40.8670000000	  13.7659000000
H	  12.3736000000	  42.8477000000	  15.4006000000
H	  13.0767000000	  41.4898000000	  14.5042000000
H	  11.5129000000	  44.2211000000	  12.1088000000
H	  10.9688000000	  44.4844000000	  13.8092000000
O	  12.6990000000	  39.4163000000	  10.7176000000
O	  10.9767000000	  40.8753000000	  10.8996000000
C	  11.6269000000	  38.9517000000	   9.9193900000
C	  10.4875000000	  39.6374000000	  10.6536000000
C	  12.2785000000	  40.7349000000	  11.0029000000
H	  11.7789000000	  39.1581000000	   8.8818900000
H	  11.6966000000	  37.8831000000	   9.9666100000
H	   9.5884700000	  39.6373000000	  10.0439000000
H	  10.2067000000	  39.0813000000	  11.5824000000
H	  12.6712000000	  41.1615000000	  11.9346000000
H	  12.7843000000	  41.3259000000	  10.2052000000
