42

Li	  33.9392000000	  58.8523000000	   2.8818100000
O	  36.9364000000	  60.3142386449	   4.9797500000
O	  35.4739000000	  59.5793396449	   3.4965500000
C	  37.7241000000	  59.3036000000	   4.2929700000
C	  36.5476000000	  58.6214000000	   3.5680200000
C	  35.9809000000	  60.7041986449	   4.0727800000
H	  38.2245000000	  59.6868686449	   3.4235400000
H	  38.3821000000	  58.6179000000	   4.8846000000
H	  36.8021000000	  58.3470000000	   2.5539100000
H	  36.3771000000	  57.6632000000	   4.0677400000
H	  35.2429000000	  61.4133086449	   4.4604200000
H	  36.3905000000	  61.3300086449	   3.3206700000
O	  34.5526000000	  60.8096486449	  -0.3103775329
O	  33.9016000000	  59.1624000000	   1.0234000000
C	  33.0907000000	  60.7696786449	  -0.3205775329
C	  32.8481000000	  59.3291826449	   0.1975224671
C	  34.9987000000	  59.7295786449	   0.3698224671
H	  32.7101000000	  61.5406786449	   0.3224224671
H	  32.8194000000	  60.8842386449	  -1.3120775329
H	  31.8573000000	  59.0663000000	   0.5170224671
H	  32.9218000000	  58.6493000000	  -0.6471775329
H	  35.3469000000	  58.9959000000	  -0.3544775329
H	  35.7908000000	  60.0019486449	   1.0308100000
O	  33.9987000000	  54.9702000000	   3.9288500000
O	  34.0295000000	  56.8690000000	   2.7684500000
C	  35.0281000000	  54.8622000000	   2.9065000000
C	  34.5280000000	  55.9313000000	   1.8733900000
C	  33.2348000000	  56.0914000000	   3.5921400000
H	  36.0342000000	  55.1171000000	   3.2645200000
H	  34.9946000000	  53.8460000000	   2.5424500000
H	  35.2818000000	  56.2767000000	   1.2023400000
H	  33.7843000000	  55.4824000000	   1.2248300000
H	  32.3236000000	  55.6772000000	   3.3271400000
H	  33.0404000000	  56.7279000000	   4.4578900000
S	  33.6684000000	  68.5547886449	   6.2557700000
S	  34.8953000000	  67.0115086449	   6.9346200000
S	  35.4789000000	  65.5484986449	   5.5552300000
S	  31.3428000000	  62.5941886449	   3.7132700000
S	  32.1962000000	  60.7391786449	   3.0676600000
S	  32.5524000000	  59.4226526449	   4.7009500000
S	  32.9764000000	  63.9748686449	   3.8323200000
S	  34.1914000000	  63.8614186449	   5.5384800000
