54

Li	  24.5529000000	  42.2164000000	  24.7240000000
N	  23.4681000000	  43.1271000000	  20.3695000000
S	  24.7348000000	  42.3434000000	  19.9942000000
O	  25.9500000000	  42.4063000000	  20.7617000000
O	  24.5101000000	  41.0510000000	  19.3675000000
C	  25.2702000000	  43.4688000000	  18.6742000000
F	  26.3119000000	  42.8877000000	  18.0834000000
F	  25.5966000000	  44.6546000000	  19.0947000000
F	  24.3585000000	  43.6654000000	  17.7177000000
S	  23.1394000000	  43.7346000000	  21.7599000000
O	  22.9577000000	  45.1782000000	  21.6862000000
O	  23.8000000000	  43.1897000000	  22.9622000000
C	  21.4166000000	  43.1346000000	  21.9944000000
F	  21.3749000000	  41.8723000000	  21.5429000000
F	  20.9116000000	  43.1733000000	  23.1921000000
F	  20.5703000000	  43.8385000000	  21.2312000000
N	  25.8774000000	  39.0089000000	  22.6651000000
S	  26.5596000000	  38.9124000000	  21.2399000000
O	  25.7010000000	  38.7337000000	  20.1023000000
O	  27.6099000000	  39.8687000000	  21.1456000000
C	  27.3671000000	  37.2684000000	  21.2305000000
F	  28.1303000000	  37.0284000000	  20.2065000000
F	  26.5245000000	  36.2792000000	  21.3383000000
F	  28.1691000000	  36.9872000000	  22.2348000000
S	  24.3970000000	  39.3137000000	  22.9690000000
O	  23.5869000000	  39.1834000000	  21.7915000000
O	  24.1983000000	  40.3617000000	  23.9619000000
C	  24.0521000000	  37.7964000000	  23.8619000000
F	  24.2972000000	  36.7310000000	  23.0998000000
F	  24.7337000000	  37.6243000000	  24.9843000000
F	  22.7529000000	  37.6942000000	  24.1804000000
N	  27.2836000000	  41.2743000000	  27.2734000000
S	  27.6323000000	  41.3659000000	  25.7702000000
O	  26.5606000000	  41.6835000000	  24.8908000000
O	  28.9030000000	  41.9666000000	  25.4990000000
C	  28.0428000000	  39.6903000000	  25.4287000000
F	  28.9730000000	  39.2894000000	  26.2497000000
F	  28.5874000000	  39.5371000000	  24.2237000000
F	  26.9496000000	  38.8740000000	  25.4855000000
S	  27.3258000000	  42.5674000000	  28.1708000000
O	  26.1954000000	  42.5727000000	  29.0904000000
O	  27.7447000000	  43.7952000000	  27.4949000000
C	  28.7296000000	  42.1131000000	  29.2824000000
F	  28.9759000000	  43.1107000000	  30.1422000000
F	  28.4126000000	  41.0871000000	  29.9740000000
F	  29.8178000000	  41.9097000000	  28.6981000000
S	  14.9360000000	  43.5762000000	  32.6373000000
S	  15.8571000000	  44.6723000000	  31.0391000000
S	  17.3865000000	  43.5564000000	  30.2568000000
S	  20.6219000000	  43.8727000000	  27.0583000000
S	  22.5851000000	  44.2993000000	  26.3889000000
S	  24.0679000000	  42.8848000000	  26.6486000000
S	  19.5826000000	  45.3004000000	  28.1706000000
S	  19.2176000000	  44.6193000000	  30.1872000000
