79

Li	  13.2616000000	  35.1329000000	  26.3639000000
O	  13.0698000000	  33.3753000000	  22.5007000000
O	  13.0215000000	  34.4938000000	  24.4743000000
C	  14.3042000000	  34.0004000000	  22.5909000000
C	  13.8769000000	  35.1172000000	  23.5192000000
C	  12.4904000000	  33.4272000000	  23.8081000000
H	  15.1079000000	  33.4073000000	  23.0877000000
H	  14.8570000000	  34.2678000000	  21.7071000000
H	  14.6620000000	  35.7210000000	  24.0775000000
H	  13.2348000000	  35.8891000000	  22.9624000000
H	  11.4169000000	  33.6030000000	  23.7428000000
H	  12.5761000000	  32.4539000000	  24.2057000000
O	  10.8671000000	  34.8605000000	  26.3443000000
O	   8.7927600000	  34.8897000000	  27.0679000000
C	  10.7749000000	  33.7015000000	  27.1827000000
C	   9.3299800000	  33.6902000000	  27.5364000000
C	   9.8553000000	  35.7315000000	  26.7572000000
H	  11.2291000000	  32.8041000000	  26.7512000000
H	  11.3248000000	  33.8054000000	  28.1127000000
H	   8.7470000000	  32.9063000000	  27.0619000000
H	   9.1070400000	  33.5444000000	  28.5883000000
H	  10.1820000000	  36.2684000000	  27.6685000000
H	   9.5362200000	  36.4483000000	  25.9151000000
O	  12.6863000000	  38.6614000000	  24.4284000000
O	  13.0713000000	  36.8996000000	  25.9310000000
C	  13.8167000000	  39.0589000000	  25.1059000000
C	  14.1891000000	  37.8061000000	  25.8483000000
C	  12.0591000000	  37.6208000000	  25.2341000000
H	  14.5831000000	  39.4188000000	  24.4100000000
H	  13.6733000000	  39.8761000000	  25.7056000000
H	  14.9047000000	  37.3135000000	  25.2313000000
H	  14.6108000000	  37.9996000000	  26.8207000000
H	  11.4313000000	  38.0303000000	  26.0268000000
H	  11.4546000000	  37.0163000000	  24.5949000000
N	  17.4749000000	  34.1296000000	  27.8465000000
S	  17.9666000000	  34.4497000000	  29.2813000000
O	  18.0698000000	  35.8194000000	  29.6398000000
O	  17.2696000000	  33.7171000000	  30.3106000000
C	  19.6924000000	  33.8429000000	  29.2249000000
F	  20.3051000000	  34.1691000000	  28.1226000000
F	  19.7429000000	  32.5341000000	  29.2391000000
F	  20.3623000000	  34.2255000000	  30.3248000000
S	  16.9467000000	  35.1077000000	  26.6996000000
O	  17.3980000000	  36.4379000000	  26.7560000000
O	  15.6113000000	  34.9328000000	  26.3811000000
C	  17.9317000000	  34.5095000000	  25.3458000000
F	  17.6269000000	  33.2254000000	  25.0876000000
F	  17.7832000000	  35.3355000000	  24.3169000000
F	  19.2225000000	  34.4996000000	  25.5827000000
N	  12.5629000000	  31.5514000000	  28.2958000000
S	  13.8628000000	  32.1834000000	  27.6997000000
O	  13.6334000000	  33.3633000000	  26.9222000000
O	  15.0513000000	  32.2229000000	  28.5569000000
C	  14.2326000000	  30.9192000000	  26.5146000000
F	  13.2034000000	  30.4967000000	  25.7791000000
F	  14.7574000000	  29.8063000000	  27.0470000000
F	  15.1291000000	  31.3366000000	  25.6645000000
S	  12.1476000000	  31.4636000000	  29.7872000000
O	  10.7763000000	  31.9046000000	  29.9232000000
O	  13.1423000000	  31.8964000000	  30.7521000000
C	  12.0001000000	  29.7073000000	  29.9485000000
F	  13.2145000000	  29.1069000000	  29.8759000000
F	  11.3506000000	  29.2628000000	  31.0528000000
F	  11.3088000000	  29.2010000000	  28.9465000000
N	  14.3688000000	  36.9780000000	  30.3424000000
S	  14.5920000000	  38.2818000000	  29.5341000000
O	  15.8139000000	  38.3704000000	  28.8484000000
O	  13.4439000000	  38.8290000000	  28.8200000000
C	  14.6341000000	  39.3819000000	  30.9772000000
F	  15.6389000000	  39.1827000000	  31.8329000000
F	  13.5399000000	  39.1989000000	  31.6663000000
F	  14.6924000000	  40.6565000000	  30.5721000000
S	  13.6875000000	  35.7302000000	  29.7741000000
O	  14.2766000000	  34.5084000000	  30.2881000000
O	  13.4093000000	  35.8159000000	  28.3593000000
C	  12.1762000000	  35.8573000000	  30.6904000000
F	  11.4781000000	  34.7671000000	  30.5004000000
F	  12.3716000000	  35.9395000000	  31.9870000000
F	  11.4065000000	  36.8563000000	  30.3179000000
