28

Li	  31.4475000000	   9.9396700000	   9.4816800000
O	  30.4518000000	   9.3363500000	   8.0007500000
O	  29.0591000000	   9.3944200000	   6.3373300000
C	  30.6249000000	   8.0097000000	   7.3990000000
C	  29.6462000000	   8.1367500000	   6.2081800000
C	  29.2156000000	   9.7471900000	   7.5953900000
H	  31.6185000000	   7.9085800000	   7.0533200000
H	  30.3725000000	   7.1369900000	   8.0439800000
H	  30.0661000000	   7.9742600000	   5.3151300000
H	  28.9450000000	   7.3046500000	   6.4015500000
H	  28.4956000000	   9.3808500000	   8.3073800000
H	  29.0684000000	  10.8956000000	   7.6661600000
S	  25.8272000000	   3.8457200000	  13.9884000000
S	  26.9252000000	   4.6076000000	  12.3017000000
S	  28.8442000000	   3.8165900000	  12.0659000000
S	  29.3370000000	   8.7712200000	  11.3308000000
S	  30.5512000000	  10.5159000000	  11.5891000000
S	  30.6705000000	  11.9998000000	  10.0265000000
S	  30.3332000000	   6.8998100000	  10.9550000000
S	  30.3445000000	   5.3634100000	  12.3984000000
S	  33.4751000000	  10.0337000000	   8.6182200000
S	  33.4959000000	   8.6604700000	  10.2224000000
S	  34.3767000000	   6.8229100000	   9.6838600000
S	  34.0387000000	   3.1028900000	   6.5881200000
S	  33.0658000000	   2.3604500000	   4.7768600000
S	  32.8657000000	   0.2895313551	   4.7415300000
S	  33.4344000000	   5.0041000000	   6.8618300000
S	  33.0962000000	   5.3536300000	   8.8892300000
