35

Li	  16.2335000000	  11.4796000000	  12.9435000000
O	  14.4015000000	  12.0594000000	  14.1822000000
O	  15.2492000000	  12.3232000000	  16.1674000000
C	  13.8213000000	  11.0407000000	  14.9032000000
C	  14.3870000000	  11.2259000000	  16.2894000000
C	  14.7544000000	  13.0474000000	  15.0584000000
H	  12.7381000000	  11.1075000000	  14.9143000000
H	  14.1242000000	  10.0936000000	  14.5003000000
H	  13.6374000000	  11.4232000000	  17.0360000000
H	  14.8239000000	  10.3109000000	  16.7491000000
H	  15.4524000000	  13.6736000000	  14.5162000000
H	  13.9533000000	  13.7268000000	  15.4329000000
N	  14.6268000000	  13.2400000000	   9.3896100000
S	  14.0506000000	  11.9281000000	   8.7834700000
O	  14.7173000000	  10.7026000000	   8.8618100000
O	  12.5953000000	  11.9149000000	   8.9605400000
C	  14.2259000000	  12.3204000000	   6.9987900000
F	  15.4535000000	  12.5242000000	   6.5820600000
F	  13.5581000000	  13.4868000000	   6.7050900000
F	  13.7097000000	  11.3965000000	   6.2217600000
S	  15.1617000000	  13.4167000000	  10.8097000000
O	  16.0846000000	  12.4347000000	  11.3170000000
O	  14.1116000000	  13.9020000000	  11.7304000000
C	  16.2657000000	  14.8089000000	  10.5819000000
F	  15.6851000000	  15.7916000000	   9.8675100000
F	  16.8043000000	  15.2071000000	  11.7247000000
F	  17.3220000000	  14.3741000000	   9.8924900000
S	  16.5404000000	   9.3870300000	  12.9130000000
S	  14.7144000000	   9.2624200000	  11.8355000000
S	  13.1526000000	   7.9468400000	  12.5504000000
S	  10.2108000000	   4.1862900000	  11.8203000000
S	   8.9773000000	   2.9787400000	  12.9924000000
S	   7.3308300000	   3.9033100000	  13.9163000000
S	  12.0881000000	   4.5026000000	  12.5355000000
S	  13.0840000000	   6.0835800000	  11.5767000000
