45

Li	  40.2319000000	  32.0559000000	  31.1796000000
O	  39.6258000000	  28.1312000000	  32.9944000000
O	  39.5927000000	  30.0174000000	  31.8714000000
C	  38.3289000000	  28.0993000000	  32.4333000000
C	  38.2494000000	  29.5928000000	  32.0080000000
C	  40.3555000000	  28.9558000000	  32.0455000000
H	  38.2946000000	  27.3863000000	  31.5610000000
H	  37.5830000000	  27.8984000000	  33.1780000000
H	  37.7110000000	  29.6735000000	  31.0917000000
H	  37.7753000000	  30.3169000000	  32.6848000000
H	  41.3380000000	  29.3171000000	  32.4690000000
H	  40.4436000000	  28.4239000000	  31.1250000000
O	  38.4335000000	  32.7712000000	  29.9131000000
O	  40.4894000000	  33.3054000000	  29.6126000000
C	  38.3511000000	  34.1824000000	  29.8191000000
C	  39.8413000000	  34.4937000000	  29.8436000000
C	  39.5071000000	  32.5145000000	  29.1205000000
H	  37.9446000000	  34.4334000000	  28.8759000000
H	  37.8122000000	  34.7838000000	  30.5982000000
H	  40.1762000000	  35.2490000000	  29.1121000000
H	  40.0847000000	  34.9576000000	  30.8334000000
H	  39.8709000000	  31.4878000000	  29.2494000000
H	  39.2557000000	  32.7583000000	  28.0785000000
F	  42.6188000000	  29.4414000000	  29.8899000000
F	  42.1060000000	  31.1262000000	  28.5343000000
F	  44.0985000000	  29.7470000000	  27.4261000000
F	  44.8581000000	  31.5374000000	  28.3390000000
O	  41.9925000000	  31.6568000000	  31.4537000000
O	  40.0157000000	  32.8265000000	  32.7019000000
C	  43.0186000000	  30.6070000000	  29.3895000000
C	  43.1920000000	  31.3909000000	  30.7119000000
C	  42.3589000000	  32.4061000000	  32.6432000000
C	  44.2599000000	  30.3549000000	  28.6014000000
C	  41.0984000000	  32.4432000000	  33.5783000000
C	  38.8097000000	  32.9301000000	  33.5138000000
H	  43.9745000000	  30.9346000000	  31.3360000000
H	  43.5095000000	  32.3355000000	  30.4578000000
H	  43.1707000000	  32.0463000000	  33.2519000000
H	  42.7684000000	  33.4431000000	  32.3178000000
H	  44.8843000000	  29.6330000000	  29.1765000000
H	  40.9691000000	  31.4336000000	  33.9843000000
H	  41.1727000000	  33.1773000000	  34.4123000000
H	  38.0410000000	  33.1944000000	  32.8618000000
H	  38.5352000000	  31.9328000000	  33.9303000000
H	  38.9264000000	  33.7246000000	  34.2967000000
