35

Li	   6.5163000000	   1.6135600000	  39.2249000000
O	   5.7139200000	   3.1700400000	  39.5671000000
O	   3.7495100000	   3.9582700000	  40.6183000000
C	   5.1781700000	   4.2328900000	  38.8380000000
C	   3.7003800000	   4.2787900000	  39.2395000000
C	   5.0298800000	   3.3246000000	  40.8234000000
H	   5.6807900000	   5.0854000000	  39.2075000000
H	   5.3406100000	   4.2380500000	  37.8048000000
H	   3.1499800000	   5.2431400000	  38.9786000000
H	   3.2522500000	   3.4852100000	  38.6184000000
H	   4.9049700000	   2.3904500000	  41.4214000000
H	   5.6289200000	   4.0574900000	  41.4106000000
N	   6.0083900000	  -0.3299049496	  35.6782000000
S	   6.7359300000	   1.0420200000	  36.0611000000
O	   6.4600200000	   2.1712700000	  35.1709000000
O	   6.9250600000	   1.3315000000	  37.4791000000
C	   8.4132600000	   0.4589950504	  35.5956000000
F	   8.6452200000	   0.0716950504	  34.3859000000
F	   8.7301800000	  -0.5328049496	  36.4575000000
F	   9.2021600000	   1.4717100000	  35.8504000000
S	   4.8726100000	  -1.0199049496	  36.5332000000
O	   4.2665900000	  -0.1259049496	  37.4986000000
O	   5.1358800000	  -2.4083049496	  36.8558000000
C	   3.6086800000	  -1.2469049496	  35.2071000000
F	   4.0534300000	  -1.9414049496	  34.2148000000
F	   2.4958900000	  -1.7522049496	  35.6289000000
F	   3.2826500000	  -0.1685049496	  34.6741000000
S	   0.0338398763	   2.0228500000	  46.4381000000
S	   0.1259398763	   2.6384300000	  44.4234000000
S	   1.9056200000	   2.0775600000	  43.4882000000
S	   4.6585300000	  -1.2808049496	  41.0865000000
S	   6.3344500000	  -0.6844049496	  40.0991000000
S	   7.3508700000	   0.7803950504	  41.2019000000
S	   3.0719000000	   0.0398950504	  40.7167000000
S	   1.7966800000	   0.2207950504	  42.3967000000
