53

Li	   2.9018900000	  38.8564000000	   2.8772400000
F	   0.7273398763	  38.9925000000	  -0.7507546025
F	   1.2421800000	  40.6136000000	   0.5924453975
F	   1.4245300000	  40.5943000000	  -2.8666546025
F	  -0.1838601237	  41.4642000000	  -1.6675546025
O	   3.3241000000	  38.6573000000	   0.4513453975
O	   2.6703900000	  36.6809000000	   2.4212900000
C	   1.5535400000	  40.1019000000	  -0.6136546025
C	   3.0137500000	  39.5939000000	  -0.5859546025
C	   3.0295300000	  37.3078000000	   0.0737453975
C	   1.0802100000	  41.1512000000	  -1.7039546025
C	   3.4236600000	  36.3857000000	   1.2418800000
C	   2.5428200000	  35.6609000000	   3.4250300000
H	   3.4775800000	  39.1225000000	  -1.5850546025
H	   3.5726200000	  40.4740000000	  -0.3888546025
H	   1.9450700000	  37.1497000000	  -0.0631546025
H	   3.6205600000	  37.0999000000	  -0.8463546025
H	   1.6502100000	  42.0785000000	  -1.5374546025
H	   3.2650900000	  35.3324000000	   0.9287290000
H	   4.4800700000	  36.5939000000	   1.3958900000
H	   1.6282500000	  35.7402000000	   4.0654300000
H	   2.3103800000	  34.6607000000	   3.0632300000
H	   3.3727000000	  35.5666000000	   4.0580600000
F	   4.4876000000	  43.4686000000	   1.0518400000
F	   5.9666800000	  44.0993000000	   2.3858800000
F	   6.9096500000	  41.9134000000	   0.9385100000
F	   6.5217700000	  41.4766000000	   3.0246900000
O	   3.1599700000	  41.9468000000	   3.0315600000
O	   1.2926700000	  39.5896000000	   3.3213100000
C	   5.1503000000	  43.1447000000	   2.1119100000
C	   4.1088300000	  42.9639000000	   3.3277800000
C	   2.3388100000	  41.6925000000	   4.0898500000
C	   5.9577800000	  41.8233000000	   1.8633900000
C	   1.0316600000	  40.9299000000	   3.6845200000
C	   0.0174398763	  38.8862000000	   3.0882500000
H	   4.5772600000	  42.7436000000	   4.3001900000
H	   3.7259300000	  43.9526000000	   3.2921000000
H	   2.9145500000	  41.1161000000	   4.8083200000
H	   1.9443500000	  42.5505000000	   4.6230200000
H	   5.2977700000	  40.9897000000	   1.5603100000
H	   0.2766398763	  40.9810000000	   4.5200300000
H	   0.4924398763	  41.4432000000	   2.8675400000
H	   0.2315398763	  37.8284000000	   3.0207400000
H	  -0.7413601237	  39.0842000000	   3.9061600000
H	  -0.3078601237	  39.1466000000	   2.0864700000
S	   4.6996300000	  38.8280000000	   3.9778300000
S	   6.5943800000	  37.9732000000	   3.4569700000
S	   7.2207700000	  38.5739000000	   1.4711400000
S	   6.1067700000	  36.0236000000	  -3.0745546025
S	   4.0447300000	  35.7005000000	  -3.1830546025
S	   3.6253700000	  33.9480000000	  -1.9564546025
S	   6.5693800000	  37.6685000000	  -1.7863546025
S	   7.4641700000	  37.1289000000	  -0.0047546025
