39

Li	  41.7775000000	  17.0028000000	  28.0608000000
O	  42.0657000000	  13.2418000000	  29.9867000000
O	  41.3603000000	  15.3561000000	  29.2950000000
C	  41.6440000000	  13.9332000000	  31.1404000000
C	  41.4767000000	  15.3628000000	  30.6814000000
C	  41.4667000000	  14.0169000000	  28.8824000000
H	  40.7304000000	  13.4120000000	  31.5275000000
H	  42.2473000000	  13.9165000000	  31.9792000000
H	  40.5636000000	  15.7291000000	  31.0583000000
H	  42.3622000000	  15.9372000000	  31.0755000000
H	  42.1400000000	  13.7854000000	  28.0180000000
H	  40.5014000000	  13.5944000000	  28.5540000000
O	  40.1542000000	  17.8511000000	  27.9437000000
O	  38.6718000000	  19.3203000000	  27.1126000000
C	  39.4035000000	  18.2744000000	  29.0055000000
C	  38.4645000000	  19.3710000000	  28.5257000000
C	  39.2980000000	  18.1147000000	  26.8518000000
H	  38.8523000000	  17.4132000000	  29.5420000000
H	  40.1080000000	  18.5942000000	  29.8404000000
H	  37.4061000000	  19.2202000000	  28.8126000000
H	  38.7041000000	  20.2413000000	  29.0679000000
H	  39.7925000000	  18.0707000000	  25.8366000000
H	  38.5470000000	  17.3639000000	  26.8216000000
S	  41.6894000000	  15.9922000000	  26.2127000000
S	  40.2909000000	  14.8906000000	  25.0285000000
S	  40.0074000000	  12.9048000000	  25.6337000000
S	  41.5606000000	   9.4953000000	  21.8106000000
S	  42.5628000000	   7.5438300000	  22.1016000000
S	  41.5788000000	   6.2350400000	  20.8093000000
S	  40.4645000000	  10.1165000000	  23.5249000000
S	  41.3621000000	  11.5507000000	  24.6932000000
S	  43.1110000000	  18.4987000000	  29.0272000000
S	  44.9334000000	  17.4795000000	  28.8803000000
S	  44.7788000000	  15.4933000000	  28.1630000000
S	  48.5172000000	  12.8640000000	  31.0564000000
S	  50.1703000000	  11.5297000000	  30.6747000000
S	  49.8255000000	   9.3973200000	  30.7684000000
S	  47.8594000000	  14.0359000000	  29.4520000000
S	  45.6928000000	  14.1809000000	  29.5520000000
