56

Li	   5.6148300000	  57.5936000000	  46.6958000000
O	   4.4365800000	  58.7802000000	  47.4882000000
O	   3.7899400000	  60.7124949496	  48.5704000000
C	   3.1900200000	  58.6344000000	  48.1854000000
C	   3.2702700000	  59.6154949496	  49.3302000000
C	   4.6536000000	  60.1772349496	  47.6050000000
H	   2.2474200000	  58.7848000000	  47.5394000000
H	   3.0932500000	  57.7220000000	  48.7569000000
H	   2.3535400000	  59.9082649496	  49.7772000000
H	   3.8864400000	  59.2483649496	  50.1115000000
H	   5.6971000000	  60.3340349496	  47.9217000000
H	   4.4594100000	  60.6731949496	  46.6047000000
F	   1.3776700000	  60.1322849496	  41.5264000000
F	   1.7486400000	  61.6263649496	  43.0924000000
F	   0.5829398763	  62.4725449496	  40.7037000000
F	   2.4525300000	  63.4180449496	  41.1540000000
O	   3.5523800000	  59.5097349496	  42.6589000000
O	   5.5477200000	  57.5207000000	  44.8530000000
C	   2.1229600000	  61.1488249496	  41.8939000000
C	   3.5950700000	  60.6995249496	  41.9132000000
C	   4.8297000000	  59.1782349496	  43.1257000000
C	   1.8727300000	  62.2602649496	  40.7707000000
C	   4.4457900000	  57.9570000000	  44.0600000000
C	   6.3340700000	  56.5405000000	  44.2018000000
H	   3.9673400000	  60.4959149496	  40.8564000000
H	   4.2529900000	  61.4188249496	  42.3251000000
H	   5.5198300000	  59.0203000000	  42.3009000000
H	   5.2242500000	  59.9591649496	  43.8167000000
H	   2.3183000000	  61.9679649496	  39.7288000000
H	   3.6974900000	  58.3761000000	  44.7514000000
H	   3.9686400000	  57.1622000000	  43.3611000000
H	   6.6432900000	  56.7930000000	  43.1736000000
H	   7.2371500000	  56.2048000000	  44.7806000000
H	   5.7235400000	  55.6260000000	  44.0782000000
F	   3.2847900000	  55.9391000000	  46.4541000000
F	   4.5541400000	  54.2440000000	  45.9021000000
F	   1.9505200000	  54.2948000000	  47.9580000000
F	   2.2005700000	  53.2590000000	  46.0643000000
O	   5.8472000000	  55.9564000000	  47.5176000000
O	   7.3386600000	  58.1551000000	  47.1795000000
C	   3.8333400000	  54.7554000000	  46.8939000000
C	   4.8863900000	  55.0342000000	  47.9727000000
C	   7.0239700000	  55.9582000000	  48.2258000000
C	   2.8382200000	  53.6714000000	  47.1843000000
C	   8.0646300000	  56.8830000000	  47.4840000000
C	   7.8984200000	  59.1440249496	  46.3310000000
H	   4.4407800000	  55.3120000000	  48.9653000000
H	   5.3463900000	  54.0828000000	  48.0566000000
H	   6.7723000000	  56.4933000000	  49.1678000000
H	   7.3309800000	  54.9633000000	  48.3747000000
H	   3.2397700000	  52.8461000000	  47.7300000000
H	   8.9124000000	  57.1374000000	  48.0324000000
H	   8.4650400000	  56.4744000000	  46.5710000000
H	   8.7759600000	  59.7164249496	  46.6298000000
H	   8.2003700000	  58.7343000000	  45.3696000000
H	   7.1294200000	  59.8796649496	  46.0260000000
