45

Li	  24.3267000000	  22.8838000000	  58.4352000000
F	  22.2804000000	  19.6368000000	  56.3995000000
F	  24.1601000000	  19.3322000000	  57.5971000000
F	  23.0295000000	  16.9495000000	  56.7486000000
F	  23.2646000000	  17.2629000000	  58.9220000000
O	  22.2751000000	  21.4917000000	  58.5091000000
O	  23.2007000000	  24.1003000000	  59.2671446025
C	  22.8063000000	  19.2013000000	  57.5662000000
C	  22.1402000000	  20.0965000000	  58.6252000000
C	  21.6044000000	  22.2840000000	  59.5022746025
C	  22.6699000000	  17.6659000000	  57.7836000000
C	  21.7871000000	  23.8025000000	  59.1453246025
C	  23.5071000000	  24.7907000000	  60.5437046025
H	  21.1001000000	  20.0728000000	  58.4466000000
H	  22.3641000000	  19.8480000000	  59.6536446025
H	  20.5717000000	  22.0526000000	  59.5084446025
H	  21.9865000000	  22.1030000000	  60.4780046025
H	  21.6793000000	  17.3974000000	  57.9909000000
H	  21.5246000000	  23.9178000000	  58.1301000000
H	  21.0644000000	  24.3024000000	  59.8030446025
H	  24.5825000000	  24.8589000000	  60.6366746025
H	  22.9052000000	  25.6374000000	  60.5011346025
H	  23.0496000000	  24.2186000000	  61.3477946025
F	  25.8402000000	  21.9999000000	  61.2999146025
F	  24.2112000000	  20.8043000000	  60.5510046025
F	  27.4340000000	  19.6606000000	  61.2267046025
F	  25.6986000000	  19.6295000000	  62.5714646025
O	  25.4271000000	  21.6223000000	  58.2675000000
O	  24.5191000000	  23.3442000000	  56.5352000000
C	  25.5477000000	  20.8881000000	  60.6186846025
C	  26.2047000000	  20.9150000000	  59.2475746025
C	  25.9275000000	  21.6101000000	  56.9714000000
C	  26.0981000000	  19.6397000000	  61.3382646025
C	  24.8791000000	  22.0827000000	  55.9555000000
C	  23.6410000000	  24.2456000000	  55.7571000000
H	  27.2398000000	  21.2671000000	  59.3260246025
H	  26.2742000000	  19.8985000000	  58.7777000000
H	  26.7959000000	  22.2139000000	  56.9521000000
H	  26.1786000000	  20.6238000000	  56.7280000000
H	  25.7778000000	  18.7795000000	  60.7760546025
H	  25.4049000000	  22.1571000000	  54.9976000000
H	  24.0089000000	  21.4150000000	  55.8723000000
H	  23.7212000000	  25.2736000000	  56.1076000000
H	  23.8721000000	  24.2685000000	  54.7112000000
H	  22.6013000000	  23.9342000000	  55.8541000000
