49

Li	  18.4575000000	  19.8292000000	  30.7480000000
O	  18.4100000000	  18.2156000000	  29.8400000000
O	  18.8261000000	  16.0124000000	  29.1708000000
C	  19.0009000000	  18.1441000000	  28.5333000000
C	  19.7414000000	  16.8242000000	  28.5857000000
C	  18.1076000000	  16.8574000000	  30.1048000000
H	  18.1800000000	  18.0700000000	  27.7560000000
H	  19.6988000000	  18.9408000000	  28.2598000000
H	  20.0942000000	  16.4726000000	  27.5705000000
H	  20.6321000000	  16.8783000000	  29.1128000000
H	  18.5307000000	  16.5604000000	  31.0978000000
H	  17.0145000000	  16.5713000000	  30.0655000000
F	  22.2510000000	  19.6839000000	  30.6204000000
F	  22.9192000000	  21.4255000000	  29.3594000000
F	  24.9050000000	  20.4269000000	  31.0360000000
F	  24.2346000000	  22.3969000000	  31.5728000000
O	  20.2718000000	  21.3673000000	  30.2444000000
O	  17.5631000000	  20.9678000000	  29.5719000000
C	  22.6211000000	  20.9732000000	  30.5780000000
C	  21.3679000000	  21.7655000000	  31.1053000000
C	  19.3085000000	  22.2953000000	  30.3926000000
C	  23.8885000000	  21.1543000000	  31.4150000000
C	  18.2399000000	  22.1057000000	  29.2957000000
C	  16.4023000000	  20.7276000000	  28.7144000000
H	  21.2333000000	  21.4028000000	  32.1486000000
H	  21.6831000000	  22.8320000000	  31.1953000000
H	  18.7900000000	  22.2672000000	  31.4156000000
H	  19.7699000000	  23.1971000000	  30.0110000000
H	  23.5553000000	  20.8676000000	  32.3738000000
H	  17.4765000000	  22.8292000000	  29.0122000000
H	  18.8482000000	  22.0729000000	  28.3741000000
H	  15.5312000000	  21.4250000000	  28.8788000000
H	  16.5803000000	  20.7548000000	  27.6414000000
H	  15.9187000000	  19.7887000000	  28.9190000000
N	  17.7948000000	  18.9410000000	  34.3762000000
S	  19.1817000000	  18.7646000000	  33.6497000000
O	  19.5216000000	  17.3753000000	  33.6087000000
O	  19.3173000000	  19.4994000000	  32.4234000000
C	  20.3495000000	  19.4646000000	  34.8232000000
F	  21.6267000000	  19.4495000000	  34.4757000000
F	  20.3237000000	  18.7176000000	  35.8865000000
F	  20.0673000000	  20.7438000000	  35.1025000000
S	  16.5593000000	  19.7256000000	  33.8585000000
O	  15.3588000000	  19.1579000000	  34.3955000000
O	  16.6123000000	  20.0413000000	  32.4735000000
C	  16.6609000000	  21.3934000000	  34.6914000000
F	  17.6477000000	  22.1944000000	  34.2628000000
F	  15.5191000000	  22.1296000000	  34.5541000000
F	  16.8410000000	  21.2566000000	  35.9582000000
