60

Li	  47.4978000000	  33.3797000000	  35.4397000000
O	  50.1681000000	  30.0634000000	  35.7719000000
O	  49.0923000000	  31.9991000000	  35.4098000000
C	  51.0384000000	  30.9121000000	  34.9714000000
C	  50.1601000000	  32.0184000000	  34.4423000000
C	  49.4186000000	  31.0348000000	  36.3844000000
H	  51.8169000000	  31.3544000000	  35.5812000000
H	  51.6184000000	  30.2762000000	  34.3196000000
H	  50.5314000000	  32.9530000000	  34.2435000000
H	  49.8010000000	  31.6714000000	  33.4959000000
H	  48.4928000000	  30.5866000000	  36.8701000000
H	  49.9263000000	  31.4445000000	  37.2467000000
O	  46.3335000000	  32.9569000000	  37.1785000000
O	  44.8135000000	  32.5681000000	  38.7240000000
C	  45.4932000000	  34.1563000000	  37.3252000000
C	  45.0571000000	  33.9402000000	  38.7390000000
C	  45.7091000000	  31.9687000000	  37.9013000000
H	  46.0537000000	  35.1094000000	  37.0835000000
H	  44.7134000000	  34.1381000000	  36.5468000000
H	  45.9484000000	  34.1850000000	  39.3838000000
H	  44.1947000000	  34.6007000000	  39.0297000000
H	  45.1833000000	  31.3946000000	  37.1973000000
H	  46.4776000000	  31.3307000000	  38.4044000000
F	  49.2516000000	  36.2025000000	  33.0795000000
F	  47.3887000000	  37.1465000000	  32.2129000000
F	  47.7188000000	  39.3363000000	  33.8210000000
F	  49.5626000000	  38.3332000000	  34.6819000000
O	  47.0192000000	  35.0064000000	  34.3409000000
O	  46.2972000000	  32.4689000000	  34.4419000000
C	  48.1609000000	  37.0295000000	  33.2977000000
C	  47.2922000000	  36.4381000000	  34.4400000000
C	  45.9492000000	  34.6572000000	  33.4808000000
C	  48.7523000000	  38.4392000000	  33.5659000000
C	  46.0344000000	  33.1618000000	  33.2235000000
C	  46.0761000000	  31.0330000000	  34.2514000000
H	  47.7887000000	  36.4489000000	  35.3863000000
H	  46.4604000000	  37.1196000000	  34.5996000000
H	  44.9490000000	  34.9456000000	  33.8755000000
H	  46.0485000000	  35.2231000000	  32.6109000000
H	  49.3313000000	  38.8830000000	  32.7974000000
H	  45.1209000000	  32.9201000000	  32.7084000000
H	  46.8475000000	  32.9344000000	  32.6267000000
H	  45.0014000000	  30.9216000000	  34.1271000000
H	  46.6213000000	  30.6473000000	  33.3813000000
H	  46.3551000000	  30.5759000000	  35.2214000000
N	  48.6885000000	  34.1087000000	  39.5066000000
S	  49.4258000000	  34.6315000000	  38.2494000000
O	  50.8786000000	  34.5992000000	  38.3114000000
O	  48.8121000000	  34.4027000000	  36.9635000000
C	  49.0693000000	  36.4370000000	  38.4720000000
F	  49.5083000000	  37.1652000000	  37.4656000000
F	  49.4968000000	  36.9183000000	  39.6034000000
F	  47.7580000000	  36.5773000000	  38.4836000000
S	  49.0736000000	  32.7664000000	  40.3039000000
O	  50.2080000000	  32.0007000000	  39.8742000000
O	  47.8838000000	  32.0870000000	  40.7364000000
C	  49.6797000000	  33.6477000000	  41.8835000000
F	  48.6473000000	  34.1019000000	  42.6120000000
F	  50.2741000000	  32.8542000000	  42.7370000000
F	  50.5332000000	  34.7020000000	  41.5703000000
