42

Li	  26.5681000000	  22.9371000000	  13.1382000000
O	  29.3925000000	  26.0333000000	  13.8090000000
O	  27.9825000000	  24.4467000000	  12.9943000000
C	  30.1213000000	  25.2925000000	  12.7900000000
C	  29.0370000000	  24.5810000000	  12.0452000000
C	  28.3277000000	  25.2314000000	  14.0879000000
H	  30.6998000000	  25.8918000000	  12.1226000000
H	  30.6794000000	  24.6170000000	  13.3782000000
H	  28.7594000000	  25.2814000000	  11.2478000000
H	  29.2761000000	  23.6223000000	  11.6492000000
H	  28.6142000000	  24.6734000000	  14.9658000000
H	  27.5150000000	  25.9144000000	  14.3373000000
F	  26.1996000000	  24.6983000000	  10.4890000000
F	  26.7680000000	  23.6100000000	   8.7164200000
F	  23.5175000000	  24.6234000000	   9.7073500000
F	  25.0030000000	  25.4016000000	   8.1742800000
O	  26.5001000000	  22.2031000000	  11.3480000000
O	  27.5382000000	  21.6773000000	  13.8718000000
C	  25.8153000000	  23.8043000000	   9.6193500000
C	  25.5342000000	  22.4435000000	  10.2568000000
C	  26.5841000000	  20.8289000000	  11.7516000000
C	  24.5794000000	  24.3652000000	   8.9350800000
C	  27.8324000000	  20.8180000000	  12.7170000000
C	  28.5534000000	  21.6289000000	  14.8602000000
H	  24.5685000000	  22.5151000000	  10.7099000000
H	  25.5104000000	  21.6221000000	   9.5942600000
H	  25.6223000000	  20.5255000000	  12.2490000000
H	  26.7731000000	  20.2822000000	  10.8426000000
H	  24.2585000000	  23.7151000000	   8.1895400000
H	  28.0105000000	  19.7852000000	  13.0281000000
H	  28.6905000000	  21.1881000000	  12.2171000000
H	  28.2407000000	  22.0693000000	  15.8194000000
H	  28.6917000000	  20.5900000000	  15.0543000000
H	  29.5666000000	  21.9023000000	  14.5123000000
S	  20.9292000000	  14.4796000000	  17.0073000000
S	  20.0170000000	  16.2759000000	  16.4417000000
S	  21.2816000000	  17.5340000000	  15.2583000000
S	  23.9057000000	  21.1655000000	  14.2644000000
S	  25.0058000000	  22.8400000000	  14.7685000000
S	  24.9173000000	  24.3148000000	  13.2858000000
S	  22.0400000000	  20.9943000000	  15.1255000000
S	  22.0236000000	  19.2401000000	  16.2781000000
