57

Li	  30.9567000000	  58.0325000000	  44.5192000000
O	  33.6133000000	  55.2677000000	  42.5645000000
O	  32.2528000000	  56.6445000000	  43.7724000000
C	  33.5155000000	  54.8093000000	  43.8966000000
C	  33.2590000000	  56.1469000000	  44.5814000000
C	  32.5722000000	  56.1784000000	  42.5034000000
H	  32.6628000000	  54.1554000000	  44.0019000000
H	  34.3734000000	  54.2132000000	  44.2692000000
H	  33.0622000000	  55.9491000000	  45.6333000000
H	  34.0832000000	  56.7823000000	  44.6239000000
H	  32.7762000000	  56.9791000000	  41.7196000000
H	  31.7100000000	  55.7363000000	  42.1809000000
N	  30.4142000000	  60.6294149496	  41.5271000000
S	  30.1486000000	  60.9474049496	  40.0770000000
O	  30.6148000000	  62.2711649496	  39.8568000000
O	  30.3202000000	  59.8577849496	  39.1593000000
C	  28.3037000000	  61.1044449496	  40.1311000000
F	  27.8861000000	  61.7684049496	  39.0662000000
F	  27.8941000000	  61.8211249496	  41.1821000000
F	  27.7367000000	  59.9064649496	  40.1207000000
S	  31.7903000000	  60.4082549496	  42.3354000000
O	  32.9148000000	  60.0289449496	  41.5473000000
O	  31.5584000000	  59.6080049496	  43.5056000000
C	  32.2082000000	  62.0372849496	  43.0204000000
F	  32.7015000000	  62.9905249496	  42.2492000000
F	  31.1094000000	  62.6490449496	  43.5319000000
F	  33.0813000000	  61.9227949496	  44.0176000000
N	  29.8190000000	  58.7443000000	  48.3728000000
S	  29.0800000000	  57.3624000000	  48.6006000000
O	  27.6644000000	  57.5910000000	  48.5122000000
O	  29.7200000000	  56.2458000000	  47.9072000000
C	  29.3436000000	  56.8867000000	  50.3158000000
F	  28.9552000000	  55.6625000000	  50.6536000000
F	  28.6151000000	  57.6747000000	  51.0800000000
F	  30.5607000000	  57.0520000000	  50.7219000000
S	  31.1164000000	  58.9351000000	  47.6019000000
O	  31.1921000000	  58.1948000000	  46.3481000000
O	  32.3248000000	  58.9984000000	  48.3863000000
C	  30.9512000000	  60.6788049496	  47.0752000000
F	  29.7906000000	  60.9965749496	  46.5565000000
F	  31.1675000000	  61.5019549496	  48.0973000000
F	  31.8721000000	  60.9235249496	  46.1444000000
N	  27.1139000000	  56.9207000000	  43.2940000000
S	  27.8719000000	  56.2573000000	  42.1384000000
O	  29.0355000000	  57.0103000000	  41.6140000000
O	  27.9865000000	  54.8627000000	  42.3531000000
C	  26.7530000000	  56.3438000000	  40.7109000000
F	  26.3809000000	  57.5940000000	  40.6199000000
F	  25.6728000000	  55.6093000000	  40.8696000000
F	  27.4111000000	  56.0289000000	  39.5864000000
S	  27.6113000000	  57.7322000000	  44.5572000000
O	  29.0535000000	  57.9803000000	  44.6126000000
O	  26.9807000000	  57.3895000000	  45.7532000000
C	  26.9714000000	  59.3430949496	  44.2715000000
F	  25.6476000000	  59.3054249496	  43.9438000000
F	  27.0785000000	  60.0550349496	  45.3370000000
F	  27.6659000000	  60.0307649496	  43.3274000000
