50

Li	  53.7756000000	  16.8241000000	  13.0646000000
O	  52.9765000000	  17.1081000000	  11.2387000000
O	  51.4896000000	  18.5187000000	  10.6203000000
C	  53.6803000000	  17.8254000000	  10.2559000000
C	  52.5503000000	  18.7104000000	   9.7030400000
C	  51.5952000000	  17.1992000000	  11.0489000000
H	  54.3725000000	  18.5709000000	  10.7637000000
H	  54.1643000000	  17.2297000000	   9.4436700000
H	  52.7258000000	  19.8131000000	   9.7755000000
H	  52.1837000000	  18.3894000000	   8.6988300000
H	  51.2684000000	  16.6140000000	  10.2163000000
H	  51.0360000000	  17.0934000000	  11.9337000000
N	  50.2402000000	  14.3468000000	  12.7054000000
S	  49.3577000000	  14.2480000000	  11.4340000000
O	  48.8445000000	  15.5431000000	  11.1063000000
O	  49.8654000000	  13.3534000000	  10.3879000000
C	  47.9782000000	  13.2343000000	  12.0713000000
F	  48.3352000000	  12.0119000000	  12.2377000000
F	  47.0016000000	  13.1518000000	  11.2402000000
F	  47.4301000000	  13.6049000000	  13.2223000000
S	  51.7794000000	  14.0225000000	  12.9264000000
O	  52.4510000000	  15.2139000000	  13.4139000000
O	  52.4049000000	  13.1856000000	  11.9411000000
C	  51.6835000000	  12.9359000000	  14.3947000000
F	  52.8588000000	  12.3014000000	  14.6713000000
F	  51.4780000000	  13.6290000000	  15.4743000000
F	  50.6882000000	  12.1136000000	  14.2588000000
N	  55.7101000000	  14.7001000000	  14.4087000000
S	  56.4008000000	  14.9685000000	  15.8028000000
O	  57.7053000000	  15.6161000000	  15.7171000000
O	  55.4654000000	  15.4028000000	  16.7851000000
C	  56.7896000000	  13.2735000000	  16.0843000000
F	  57.6087000000	  12.9937000000	  17.1183000000
F	  57.5352000000	  12.7862000000	  15.1622000000
F	  55.6643000000	  12.4519000000	  16.2060000000
S	  56.2320000000	  15.1210000000	  12.9809000000
O	  57.5910000000	  15.6758000000	  12.9719000000
O	  55.2528000000	  15.7627000000	  12.1906000000
C	  56.4265000000	  13.5077000000	  12.2083000000
F	  57.4726000000	  12.7933000000	  12.6989000000
F	  55.4315000000	  12.7398000000	  12.4114000000
F	  56.5999000000	  13.6139000000	  10.8845000000
S	  53.3690000000	  17.5581000000	  15.0422000000
S	  55.2328000000	  18.2230000000	  14.2880000000
S	  55.1595000000	  19.8814000000	  13.0012000000
S	  56.6648000000	  24.2555000000	  12.1215000000
S	  57.3800000000	  26.2025000000	  12.8010000000
S	  59.2999801237	  26.7031000000	  12.0349000000
S	  57.2546000000	  22.5403000000	  13.2552000000
S	  55.5264000000	  21.7014000000	  14.0066000000
