42

Li	  52.3263000000	  18.2982000000	  16.4463000000
O	  52.4632000000	  19.9922000000	  16.8778000000
O	  52.2188000000	  20.3672000000	  19.0594000000
C	  53.6311000000	  20.5687000000	  17.2854000000
C	  53.5439000000	  20.8388000000	  18.8146000000
C	  51.5431000000	  20.3867000000	  17.8771000000
H	  54.3492000000	  19.8260000000	  17.0284000000
H	  53.9059000000	  21.5457000000	  16.8777000000
H	  54.1963000000	  20.3225000000	  19.4499000000
H	  53.6580000000	  21.9238000000	  19.0657000000
H	  51.0302000000	  21.3650000000	  17.7334000000
H	  50.7612000000	  19.6234000000	  18.1137000000
F	  47.2966000000	  19.9966000000	  17.4251000000
F	  47.3224000000	  21.9916000000	  16.6890000000
F	  45.0688000000	  21.3670000000	  17.9416000000
F	  44.8280000000	  21.9106000000	  15.8298000000
O	  48.6407000000	  19.9300000000	  15.2839000000
O	  50.8011000000	  18.0102000000	  15.3893000000
C	  46.8250000000	  20.7511000000	  16.5044000000
C	  47.2555000000	  20.2040000000	  15.0725000000
C	  49.1494000000	  19.2517000000	  14.1225000000
C	  45.3004000000	  20.9352000000	  16.6753000000
C	  50.6431000000	  18.8279000000	  14.2716000000
C	  50.2913000000	  16.6365000000	  15.2393000000
H	  46.6882000000	  19.3112000000	  14.8790000000
H	  47.0715000000	  20.7621000000	  14.2299000000
H	  48.5176000000	  18.4278000000	  13.9707000000
H	  49.0254000000	  19.6872000000	  13.1350000000
H	  44.7498000000	  19.9905000000	  16.5486000000
H	  50.9700000000	  18.4327000000	  13.3342000000
H	  51.1426000000	  19.7828000000	  14.5202000000
H	  49.2301000000	  16.6222000000	  14.9525000000
H	  51.0264000000	  16.1097000000	  14.5366000000
H	  50.4057000000	  15.9957000000	  16.1581000000
S	  54.3453000000	  13.1209000000	  27.3989000000
S	  55.1749000000	  14.2260000000	  25.7839000000
S	  53.8057000000	  15.6932000000	  25.0178000000
S	  53.2703000000	  17.3494000000	  20.4183000000
S	  52.3356000000	  16.8807000000	  18.5974000000
S	  53.6362000000	  16.7681000000	  16.9242000000
S	  53.9791000000	  15.6145000000	  21.5868000000
S	  52.7640000000	  15.2183000000	  23.2588000000
