20

Li	   2.9704200000	   5.8803300000	  30.5510000000
O	   2.2039200000	   6.2341200000	  33.9881000000
O	   1.8077000000	   5.4284500000	  31.8834000000
C	   0.9423398763	   6.5411900000	  33.6930000000
C	   0.7333398763	   6.3010600000	  32.2077000000
C	   2.5150300000	   5.2005200000	  33.0674000000
H	   0.3612398763	   5.8710000000	  34.2809000000
H	   0.6680398763	   7.5190900000	  33.9213000000
H	  -0.2352601237	   5.9415200000	  31.8758000000
H	   0.8374398763	   7.2244000000	  31.6405000000
H	   3.5885200000	   5.3504100000	  33.0084000000
H	   2.4012400000	   4.1425700000	  33.4972000000
S	   5.2662600000	   5.0837300000	  30.4783000000
S	   4.6995400000	   3.2737600000	  31.2219000000
S	   4.2333100000	   1.9294600000	  29.6416000000
S	   0.9725398763	   5.0350400000	  28.4386000000
S	   2.4820300000	   6.5740800000	  27.9811000000
S	   2.7019200000	   7.8561000000	  29.6174000000
S	   1.6185300000	   3.0198000000	  27.7516000000
S	   2.1595500000	   1.8319600000	  29.2833000000
