46

Li	  17.0788000000	  55.2317000000	  28.5042000000
O	  19.6265000000	  54.7439000000	  25.3612000000
O	  18.2732000000	  55.1402000000	  27.0930000000
C	  20.3173000000	  55.6557000000	  26.1849000000
C	  19.2140000000	  56.2145000000	  27.0285000000
C	  18.2993000000	  54.7348000000	  25.7550000000
H	  20.8706000000	  55.1834000000	  26.9574000000
H	  20.9786000000	  56.3749000000	  25.6623000000
H	  19.5125000000	  56.6548000000	  27.9783000000
H	  18.6694000000	  57.0770000000	  26.5414000000
H	  17.7188000000	  55.4422000000	  25.2175000000
H	  17.9273000000	  53.7189000000	  25.6422000000
O	  14.5153000000	  58.3477000000	  29.1647000000
O	  15.6037000000	  56.7427000000	  28.0199000000
C	  14.9076000000	  58.9353000000	  27.9557000000
C	  15.9222000000	  57.9352000000	  27.4451000000
C	  14.8675000000	  57.0376000000	  29.1539000000
H	  14.0401000000	  58.9162000000	  27.2934000000
H	  15.3207000000	  59.9387049496	  28.0589000000
H	  16.1258000000	  57.9368000000	  26.3615000000
H	  16.9663000000	  58.1544000000	  27.6971000000
H	  15.4918000000	  57.0100000000	  30.0564000000
H	  13.9127000000	  56.4777000000	  29.2227000000
N	  18.4313000000	  57.9451000000	  31.8243000000
S	  18.5093000000	  56.5037000000	  31.1808000000
O	  18.1027000000	  55.4624000000	  32.0872000000
O	  18.0286000000	  56.3860000000	  29.8388000000
C	  20.3696000000	  56.3516000000	  31.0656000000
F	  20.7372000000	  57.2711000000	  30.2102000000
F	  20.7126000000	  55.1730000000	  30.4978000000
F	  21.0616000000	  56.5196000000	  32.1958000000
S	  17.5991000000	  59.1512449496	  31.1519000000
O	  16.2558000000	  59.1149149496	  31.6574000000
O	  17.8068000000	  59.4206449496	  29.7184000000
C	  18.3297000000	  60.6071549496	  31.9403000000
F	  19.6596000000	  60.6657349496	  31.6904000000
F	  17.8051000000	  61.6368849496	  31.3746000000
F	  18.0916000000	  60.6534149496	  33.2239000000
S	  15.8442000000	  53.6159000000	  28.5849000000
S	  17.6268000000	  53.1954000000	  29.6866000000
S	  19.0573000000	  52.0281000000	  28.5504000000
S	  23.6394000000	  50.4113000000	  27.4996000000
S	  25.4576000000	  51.4060000000	  27.7271000000
S	  27.0495000000	  50.0270000000	  28.1790000000
S	  22.2872000000	  50.8506000000	  29.0992000000
S	  21.0703000000	  52.4905000000	  28.9006000000
