34

Li	  29.2389000000	   5.7417900000	  18.6810000000
O	  28.8694000000	   9.1076100000	  21.1714000000
O	  28.5438000000	   7.2625300000	  19.8564000000
C	  28.3203000000	   8.1650000000	  22.0171000000
C	  28.2339000000	   6.8451200000	  21.1751000000
C	  28.6202000000	   8.6558100000	  19.8756000000
H	  28.7383000000	   8.0390300000	  23.0040000000
H	  27.2392000000	   8.5251900000	  22.1987000000
H	  29.0093000000	   6.1966800000	  21.6192000000
H	  27.2541000000	   6.4438900000	  21.2905000000
H	  27.7064000000	   9.1278800000	  19.4578000000
H	  29.3920000000	   9.0051900000	  19.2427000000
O	  29.7546000000	   5.1602300000	  15.8236000000
O	  28.3829000000	   6.3303100000	  16.9469000000
C	  30.2285000000	   6.3819400000	  15.5054000000
C	  29.5543000000	   7.0907700000	  16.6545000000
C	  28.3833000000	   5.3097000000	  16.0939000000
H	  31.3219000000	   6.3664500000	  15.4659000000
H	  29.7669000000	   6.5677800000	  14.5779000000
H	  30.2235000000	   7.1437200000	  17.5150000000
H	  29.2474000000	   8.0867000000	  16.5084000000
H	  27.7500000000	   5.5464100000	  15.2059000000
H	  28.0310000000	   4.4102900000	  16.5740000000
O	  28.1989000000	   3.9568800000	  19.1886000000
O	  26.1458000000	   2.8913700000	  19.0541000000
C	  28.4758000000	   2.6006200000	  19.0512000000
C	  27.2061000000	   2.1736900000	  18.4239000000
C	  26.8642000000	   3.9665000000	  19.6697000000
H	  29.4081000000	   2.4659100000	  18.4474000000
H	  28.5915000000	   2.1450800000	  19.9945000000
H	  27.1416000000	   2.3384000000	  17.3302000000
H	  26.9591000000	   1.1541600000	  18.4849000000
H	  26.7857000000	   3.8125200000	  20.7486000000
H	  26.4635000000	   4.9087900000	  19.6058000000
