31

Li	  43.7536000000	  48.4313000000	  41.3929000000
F	  42.7207000000	  46.5335000000	  38.4949000000
F	  44.2861000000	  47.6460000000	  39.2978000000
F	  45.1776000000	  46.0495000000	  37.1519000000
F	  45.9963000000	  45.2187000000	  39.0448000000
O	  43.0130000000	  46.6037000000	  41.3541000000
O	  42.8716000000	  48.4320000000	  43.0364000000
C	  43.8958000000	  46.3565000000	  39.0944000000
C	  43.6447000000	  45.7299000000	  40.4441000000
C	  42.5021000000	  46.1118000000	  42.5823000000
C	  44.9394000000	  45.4554000000	  38.2555000000
C	  41.9882000000	  47.3295000000	  43.3360000000
C	  42.3743000000	  49.6287000000	  43.6824000000
H	  43.1505000000	  44.7343000000	  40.4811000000
H	  44.6112000000	  45.6361000000	  40.9970000000
H	  41.8058000000	  45.3516000000	  42.4320000000
H	  43.4285000000	  45.6531000000	  42.8960000000
H	  44.4808000000	  44.4941000000	  38.0566000000
H	  40.9249000000	  47.4723000000	  43.0426000000
H	  41.8376000000	  46.9597000000	  44.3174000000
H	  43.1147000000	  50.4397000000	  43.6299000000
H	  41.4274000000	  50.0013000000	  43.1310000000
H	  42.1161000000	  49.4539000000	  44.7235000000
S	  48.2032000000	  43.4566000000	  42.6255000000
S	  46.2857000000	  43.8057000000	  43.5476000000
S	  46.3173000000	  45.1099000000	  45.2652000000
S	  45.8741000000	  48.4994000000	  42.0124000000
S	  45.1554000000	  50.2858000000	  41.3271000000
S	  43.2197000000	  50.2443000000	  40.5024000000
S	  46.0896000000	  48.4697000000	  44.1164000000
S	  45.0586000000	  46.7836000000	  44.9659000000
