39

Li	  43.6928000000	  49.3675000000	  37.7889000000
O	  47.2329000000	  47.6692000000	  36.3721000000
O	  45.3668000000	  48.6036000000	  37.3860000000
C	  47.6238000000	  47.9737000000	  37.7107000000
C	  46.3971000000	  48.5215000000	  38.3526000000
C	  45.7787000000	  47.5557000000	  36.5047000000
H	  47.9675000000	  47.1038000000	  38.1983000000
H	  48.4140000000	  48.7012000000	  37.7450000000
H	  46.0643000000	  47.9144000000	  39.1832000000
H	  46.5539000000	  49.5151000000	  38.7931000000
H	  45.3161000000	  47.6593000000	  35.5240000000
H	  45.4822000000	  46.5507000000	  36.8837000000
O	  42.7042000000	  49.9957000000	  36.0885000000
O	  40.9813000000	  49.9595000000	  34.6719000000
C	  42.6999000000	  51.2929000000	  35.5593000000
C	  41.4080000000	  51.3028000000	  34.6983000000
C	  42.0212000000	  49.2149000000	  35.1831000000
H	  42.4728000000	  52.1066000000	  36.3351000000
H	  43.5948000000	  51.4301000000	  34.9582000000
H	  40.5953000000	  51.8590000000	  35.0901000000
H	  41.6274000000	  51.7541000000	  33.6970000000
H	  42.6756000000	  48.9657000000	  34.3548000000
H	  41.6239000000	  48.2515000000	  35.5451000000
S	  44.2404000000	  51.3166000000	  38.9154000000
S	  42.2051000000	  51.2781000000	  39.7535000000
S	  40.5870000000	  51.0989000000	  38.4416000000
S	  38.3072000000	  53.7706000000	  34.9191000000
S	  37.3485000000	  52.3794000000	  33.6915000000
S	  38.8342000000	  51.6719000000	  32.2891000000
S	  38.1340000000	  53.2003000000	  36.9020000000
S	  39.9993000000	  53.0258000000	  37.8774000000
S	  39.9572000000	  40.0574000000	  31.3952000000
S	  41.8732000000	  40.9278000000	  31.8348000000
S	  42.0360000000	  41.5774000000	  33.8769000000
S	  43.1812000000	  44.9324000000	  36.8974000000
S	  41.8340000000	  46.3565000000	  37.7017000000
S	  42.9270000000	  47.7354000000	  38.8066000000
S	  43.0449000000	  44.7407000000	  34.8412000000
S	  41.4420000000	  43.5856000000	  34.3135000000
