45

Li	  38.7082000000	  51.6283000000	   1.9234200000
F	  40.6929000000	  49.8435000000	   4.6945400000
F	  41.1429000000	  51.0974000000	   3.0391800000
F	  42.5262000000	  51.6420000000	   6.2609100000
F	  43.3583000000	  50.5632000000	   4.6905300000
O	  38.8698000000	  51.6797000000	   3.8193300000
O	  36.8711000000	  52.4719000000	   1.9950300000
C	  41.0764000000	  51.0738000000	   4.3855900000
C	  39.9580000000	  52.0589000000	   4.6281700000
C	  37.5500000000	  52.1574000000	   4.3422800000
C	  42.4655000000	  51.4752000000	   4.9718300000
C	  36.4785000000	  52.0337000000	   3.2854100000
C	  35.7859000000	  52.4467000000	   1.0514000000
H	  39.6786000000	  51.9560000000	   5.6643200000
H	  40.2882000000	  53.0962000000	   4.4289700000
H	  37.4271000000	  51.5477000000	   5.2958800000
H	  37.5891000000	  53.1714000000	   4.7760900000
H	  42.7765000000	  52.4134000000	   4.5558000000
H	  36.2088000000	  50.9752000000	   3.4230300000
H	  35.5793000000	  52.5907000000	   3.6020600000
H	  36.1868000000	  52.7806000000	   0.1267453975
H	  35.3666000000	  51.4398000000	   0.8639453975
H	  34.7956000000	  52.9639000000	   1.2639800000
F	  37.9939000000	  54.9100000000	   1.0192800000
F	  39.8394000000	  54.4584000000	   1.9808300000
F	  39.5470000000	  56.4513000000	  -0.8977546025
F	  39.5717000000	  57.0939000000	   1.1350800000
O	  39.3723000000	  52.2546000000	   0.3642453975
O	  38.8197000000	  49.8918000000	   1.3513000000
C	  39.3039000000	  54.7502000000	   0.8493453975
C	  39.6409000000	  53.6160000000	  -0.1551546025
C	  39.4987000000	  51.1980000000	  -0.5641546025
C	  39.8679000000	  56.0911000000	   0.3233453975
C	  39.7454000000	  49.9014000000	   0.2496453975
C	  38.8530000000	  48.6112000000	   2.0221900000
H	  39.0235000000	  53.7911000000	  -1.1248546025
H	  40.6689000000	  53.7028000000	  -0.4997546025
H	  38.5574000000	  51.1385000000	  -1.1620546025
H	  40.2792000000	  51.3406000000	  -1.3301546025
H	  40.9670000000	  56.0742000000	   0.3572453975
H	  39.5470000000	  49.0032000000	  -0.3771546025
H	  40.8092000000	  49.8517000000	   0.6017453975
H	  38.2623000000	  48.6377000000	   2.9163500000
H	  38.6590000000	  47.7062000000	   1.3974700000
H	  39.8364000000	  48.5104000000	   2.3443200000
