49

Li	  11.2796000000	  56.4766000000	  34.7244000000
O	   9.4893500000	  55.1535000000	  38.0105000000
O	  10.6454000000	  55.3685000000	  36.1435000000
C	   9.0678500000	  54.0664000000	  37.1144000000
C	   9.6972600000	  54.4115000000	  35.7502000000
C	  10.7930000000	  55.3355000000	  37.5215000000
H	   9.5520200000	  53.1776000000	  37.4851000000
H	   7.9529800000	  53.7839000000	  37.0792000000
H	  10.1057000000	  53.5170000000	  35.2818000000
H	   9.0549500000	  54.8600000000	  34.9752000000
H	  11.3570000000	  56.3044000000	  37.8729000000
H	  11.3820000000	  54.5155000000	  37.8240000000
F	  12.4777000000	  58.2276000000	  36.8887000000
F	  13.9016000000	  56.7835000000	  37.7451000000
F	  14.6793000000	  59.8891849496	  36.4784000000
F	  14.3969000000	  59.1580949496	  38.5683000000
O	  12.9987000000	  56.2595000000	  34.9685000000
O	  11.1658000000	  55.3868000000	  33.2061000000
C	  13.7330000000	  57.7529000000	  36.8269000000
C	  13.9886000000	  57.2393000000	  35.4276000000
C	  13.4828000000	  55.4757000000	  33.8476000000
C	  14.7398000000	  58.7832000000	  37.3238000000
C	  12.2905000000	  54.6107000000	  33.3551000000
C	  10.4373000000	  54.9942000000	  32.0302000000
H	  14.0699000000	  58.0136000000	  34.6074000000
H	  14.9473000000	  56.7468000000	  35.4229000000
H	  13.8035000000	  56.0806000000	  33.0208000000
H	  14.3854000000	  54.9284000000	  34.1574000000
H	  15.7915000000	  58.4656000000	  37.3174000000
H	  12.6404000000	  54.0983000000	  32.3755000000
H	  11.9461000000	  53.7976000000	  33.9180000000
H	  10.9240000000	  55.3136000000	  31.0460000000
H	  10.2044000000	  53.9643000000	  32.0417000000
H	   9.4290100000	  55.4947000000	  32.0407000000
N	   9.5214900000	  59.7669649496	  34.2614000000
S	   8.5675900000	  58.5435000000	  34.5917000000
O	   7.2061100000	  58.6982000000	  34.1130000000
O	   9.1752200000	  57.2593000000	  34.3968000000
C	   8.4455500000	  58.7016000000	  36.4257000000
F	   7.7878900000	  59.8104749496	  36.8381000000
F	   9.6028600000	  58.8016000000	  37.0499000000
F	   7.8082000000	  57.6295000000	  36.9304000000
S	  10.9940000000	  59.5556349496	  33.7678000000
O	  11.1709000000	  58.4952000000	  32.7936000000
O	  11.9785000000	  59.7364349496	  34.7734000000
C	  11.2671000000	  61.0160249496	  32.6701000000
F	  12.5378000000	  61.3612949496	  32.5545000000
F	  10.7505000000	  60.9058049496	  31.4784000000
F	  10.6620000000	  62.0693849496	  33.1734000000
