28

Li	  42.8756000000	  17.8689000000	  33.3349000000
O	  42.2674000000	  19.8600000000	  37.0205000000
O	  42.7617000000	  19.0596000000	  34.9570000000
C	  42.0898000000	  20.9299000000	  36.0530000000
C	  42.7866000000	  20.5108000000	  34.7524000000
C	  42.9511000000	  18.8965000000	  36.3175000000
H	  41.0456000000	  21.1026000000	  35.9474000000
H	  42.5304000000	  21.7768000000	  36.5490000000
H	  42.2780000000	  20.7983000000	  33.8828000000
H	  43.7418000000	  20.9855000000	  34.6391000000
H	  44.0593000000	  18.9309000000	  36.5469000000
H	  42.6768000000	  17.8946000000	  36.5710000000
S	  41.4476000000	  16.2144000000	  33.8347000000
S	  40.2855000000	  15.7944000000	  32.0941000000
S	  38.1923000000	  15.6038000000	  32.4708000000
S	  37.8327000000	  10.7116000000	  31.2199000000
S	  36.5376000000	   9.4947700000	  29.9678000000
S	  37.3364000000	   8.9510600000	  28.0920000000
S	  36.5478000000	  12.3354000000	  31.8791000000
S	  37.7641000000	  13.6609000000	  33.2076000000
S	  42.8889000000	  18.9373000000	  31.6335000000
S	  44.4934000000	  17.5115000000	  31.5153000000
S	  45.5897000000	  17.7437000000	  33.2466000000
S	  45.8494000000	  12.9737000000	  35.7333000000
S	  45.8629000000	  12.4956000000	  37.8457000000
S	  44.4361000000	  10.9766000000	  38.4062000000
S	  46.4281000000	  14.9695000000	  35.2985000000
S	  44.9755000000	  16.3546000000	  34.6534000000
