57

Li	  33.6589000000	  17.0571000000	  54.0341000000
O	  37.7362000000	  17.4121000000	  53.3442000000
O	  35.6472000000	  16.8120000000	  53.9134000000
C	  37.1992000000	  16.6412000000	  52.2990000000
C	  36.0262000000	  15.9323000000	  52.9522000000
C	  36.6807000000	  17.5794000000	  54.2707000000
H	  36.9104000000	  17.3642000000	  51.5211000000
H	  37.8988000000	  15.8995000000	  51.8040000000
H	  35.3061000000	  15.6809000000	  52.2570000000
H	  36.4667000000	  15.1227000000	  53.4109000000
H	  37.0820000000	  17.1352000000	  55.1783000000
H	  36.2314000000	  18.5921000000	  54.4575000000
F	  29.6810000000	  22.7487000000	  56.6683000000
F	  31.3167000000	  22.9166000000	  55.3326000000
F	  27.8735000000	  22.5170000000	  54.6621000000
F	  29.1502000000	  24.1590000000	  54.4027000000
O	  30.7556000000	  20.2774000000	  54.3025000000
O	  32.6976000000	  18.1831000000	  52.9414000000
C	  30.1217000000	  22.3852000000	  55.4517000000
C	  30.2100000000	  20.8225000000	  55.5367000000
C	  30.8195000000	  18.8627000000	  54.2543000000
C	  29.1073000000	  22.8371000000	  54.4493000000
C	  31.2515000000	  18.3169000000	  52.8723000000
C	  33.3982000000	  18.0474000000	  51.7680000000
H	  30.8467000000	  20.5118000000	  56.3843000000
H	  29.1455000000	  20.4251000000	  55.7052000000
H	  31.4852000000	  18.4192000000	  55.0207000000
H	  29.8155000000	  18.4013000000	  54.5761000000
H	  29.3528000000	  22.6063000000	  53.4397000000
H	  30.8639000000	  17.3201000000	  52.7009000000
H	  31.0049000000	  18.9703000000	  52.1037000000
H	  33.3538000000	  16.9530000000	  51.4229000000
H	  33.0265000000	  18.6728000000	  50.9083000000
H	  34.4766000000	  18.3028000000	  51.9480000000
N	  33.4049000000	  16.6382000000	  58.5527000000
S	  33.8138000000	  15.5051000000	  59.6131946025
O	  33.1400000000	  14.2112000000	  59.5430346025
O	  35.2027000000	  15.4669000000	  60.0117646025
C	  33.0428000000	  16.3690000000	  61.0354446025
F	  33.4630000000	  17.5834000000	  61.2842846025
F	  33.2036000000	  15.8103000000	  62.1927446025
F	  31.7695000000	  16.3538000000	  60.8209346025
S	  34.2656000000	  17.2918000000	  57.3973000000
O	  33.6133000000	  17.3252000000	  56.0958000000
O	  35.6510000000	  16.9825000000	  57.4090000000
C	  34.1095000000	  19.0527000000	  57.9073000000
F	  32.8791000000	  19.5654000000	  57.6334000000
F	  34.3149000000	  19.3297000000	  59.1544446025
F	  34.9736000000	  19.8391000000	  57.2287000000
S	  32.7939000000	  15.0840000000	  53.7392000000
S	  30.7405000000	  14.8218000000	  54.3673000000
S	  30.1684000000	  15.9508000000	  55.9562000000
S	  28.1955000000	  12.1605000000	  58.4293000000
S	  26.4968000000	  11.4847000000	  59.5089846025
S	  26.8953000000	  11.2209000000	  61.5881446025
S	  28.4640000000	  14.2321000000	  58.4372000000
S	  30.3029000000	  14.8588000000	  57.7600000000
