35

Li	  58.6476000000	  14.7901000000	  17.3905000000
O	  57.9882000000	  14.3897000000	  15.5765000000
O	  57.9239000000	  13.0840000000	  13.6395000000
C	  56.6751000000	  14.4688000000	  14.9902000000
C	  56.5870000000	  13.1626000000	  14.2093000000
C	  58.7296000000	  13.6557000000	  14.6396000000
H	  55.8598000000	  14.4730000000	  15.7682000000
H	  56.5262000000	  15.3080000000	  14.3421000000
H	  56.2201000000	  12.2872000000	  14.9221000000
H	  55.8494000000	  13.2092000000	  13.4053000000
H	  59.5164201237	  14.2988000000	  14.2854000000
H	  59.1430501237	  12.7933000000	  15.1748000000
N	  60.2249701237	  15.3851000000	  20.6426000000
S	  59.2503201237	  14.1481000000	  20.4901000000
O	  58.4838000000	  14.0544000000	  19.2382000000
O	  59.9991901237	  12.9389000000	  20.8791000000
C	  57.9716000000	  14.4067000000	  21.7833000000
F	  57.2737000000	  15.5421000000	  21.6264000000
F	  58.4446000000	  14.3355000000	  23.0005000000
F	  57.0398000000	  13.4567000000	  21.7298000000
S	  60.3091501237	  16.5850000000	  19.6459000000
O	  59.5113601237	  17.7387000000	  20.0083000000
O	  60.2772301237	  16.1516000000	  18.2335000000
C	  62.0316101237	  17.0936000000	  19.7348000000
F	  62.3488601237	  17.6176000000	  20.9331000000
F	  62.8330801237	  16.0570000000	  19.5564000000
F	  62.3174901237	  18.0016000000	  18.7748000000
S	  57.3929000000	  16.5998000000	  17.7621000000
S	  58.4015000000	  17.9497000000	  16.4650000000
S	  57.3065000000	  18.4207000000	  14.7351000000
S	  58.9176000000	  22.8001000000	  14.2599000000
S	  60.4721901237	  21.4389000000	  14.2407000000
S	  61.6368601237	  21.5960000000	  12.5050000000
S	  57.2858000000	  21.7345000000	  13.5284000000
S	  56.5383000000	  20.3615000000	  14.8906000000
