64

Li	   4.1077400000	  35.3839000000	  12.7852000000
O	   0.2411398763	  35.9049000000	  14.7499000000
O	   2.1469500000	  35.3616000000	  13.6628000000
C	  -0.0829601237	  35.0495000000	  13.6709000000
C	   1.1639700000	  34.3676000000	  13.2210000000
C	   1.4797400000	  36.3497000000	  14.3965000000
H	  -0.7844601237	  34.3122000000	  13.9969000000
H	  -0.4938601237	  35.6040000000	  12.7996000000
H	   1.3108500000	  33.4784000000	  13.8717000000
H	   1.1619000000	  34.1734000000	  12.1337000000
H	   1.3653300000	  37.1785000000	  13.7369000000
H	   2.1730300000	  36.4792000000	  15.2759000000
F	   6.4960600000	  41.1888000000	   8.3875500000
F	   4.4104000000	  41.4127000000	   8.6870300000
F	   5.0892500000	  43.9545000000	   8.2030700000
F	   5.3386000000	  43.7015000000	  10.3383000000
O	   5.5745900000	  39.6205000000	  10.5108000000
O	   4.5740700000	  36.8513000000	  11.6315000000
C	   5.5691500000	  41.7549000000	   9.1858300000
C	   5.7666900000	  41.0597000000	  10.5138000000
C	   5.9270500000	  38.9419000000	  11.7201000000
C	   5.7460400000	  43.2601000000	   9.2037700000
C	   5.9303300000	  37.3129000000	  11.5978000000
C	   3.8876800000	  37.1569000000	  10.4260000000
H	   6.7883900000	  41.2110000000	  10.7476000000
H	   5.1366500000	  41.5286000000	  11.2484000000
H	   6.9527900000	  39.1951000000	  12.0319000000
H	   5.2971900000	  39.1188000000	  12.5965000000
H	   6.8182800000	  43.4474000000	   9.0715400000
H	   6.4108900000	  36.9446000000	  10.7258000000
H	   6.4482600000	  36.9479000000	  12.4599000000
H	   2.9315300000	  36.6932000000	  10.4231000000
H	   3.5449500000	  38.2193000000	  10.4526000000
H	   4.2853900000	  36.9082000000	   9.4522400000
N	   5.6603900000	  34.9317000000	  16.9087000000
S	   6.1783600000	  35.8555000000	  15.7734000000
O	   5.3401100000	  35.9941000000	  14.6098000000
O	   7.0165400000	  36.9778000000	  16.1968000000
C	   7.5659900000	  34.7942000000	  15.1950000000
F	   8.2701800000	  34.4454000000	  16.2814000000
F	   8.3113100000	  35.4418000000	  14.2879000000
F	   7.1506600000	  33.7181000000	  14.4991000000
S	   4.2248200000	  34.7663000000	  17.3911000000
O	   3.4982500000	  33.7233000000	  16.7058000000
O	   3.5842000000	  36.0306000000	  17.6739000000
C	   4.4187800000	  34.0151000000	  19.0363000000
F	   5.2132900000	  32.9648000000	  18.8982000000
F	   4.9746100000	  34.8734000000	  19.8427000000
F	   3.3517100000	  33.6007000000	  19.5977000000
N	   4.7797200000	  31.6228000000	  12.5156000000
S	   4.4889500000	  32.6133000000	  11.3215000000
O	   3.8027700000	  32.0436000000	  10.1976000000
O	   4.0829800000	  33.9238000000	  11.7513000000
C	   6.1267000000	  32.7345000000	  10.6048000000
F	   7.0175600000	  33.0044000000	  11.5908000000
F	   6.0987300000	  33.7647000000	   9.7781300000
F	   6.5393900000	  31.6771000000	   9.9367600000
S	   3.9689500000	  30.4133000000	  12.9559000000
O	   4.6498500000	  29.1520000000	  12.7921000000
O	   2.5607600000	  30.5451000000	  12.5854000000
C	   3.7189800000	  30.6113000000	  14.7548000000
F	   4.7189100000	  31.2769000000	  15.3598000000
F	   2.6616900000	  31.2946000000	  15.0340000000
F	   3.4864600000	  29.4485000000	  15.3683000000
