64

Li	  21.9577000000	  40.6722000000	   9.1678600000
O	  20.3198000000	  41.4516000000	   7.7135600000
O	  19.5838000000	  43.0796000000	   6.4449100000
C	  18.9374000000	  41.5139000000	   7.9447200000
C	  18.5564000000	  42.8721000000	   7.3763200000
C	  20.4243000000	  42.0064000000	   6.5117400000
H	  18.3276000000	  40.7709000000	   7.3892500000
H	  18.8285000000	  41.2431000000	   8.9813300000
H	  17.5851000000	  43.0074000000	   6.8440000000
H	  18.7110000000	  43.7014000000	   8.0799000000
H	  21.4891000000	  42.4042000000	   6.3889000000
H	  20.1947000000	  41.2406000000	   5.8460900000
O	  23.7654000000	  40.0123000000	  10.0854000000
O	  25.8731000000	  40.5700000000	  10.8719000000
C	  23.9035000000	  39.4767000000	  11.3418000000
C	  25.4163000000	  39.4768000000	  11.6162000000
C	  25.0694000000	  40.4127000000	   9.7126300000
H	  23.3679000000	  40.0526000000	  12.1343000000
H	  23.5954000000	  38.4130000000	  11.3524000000
H	  25.6503000000	  39.4788000000	  12.6836000000
H	  25.8116000000	  38.6061000000	  11.1181000000
H	  25.5888000000	  39.6336000000	   9.0723500000
H	  25.0573000000	  41.3100000000	   9.1124600000
O	  22.6928000000	  39.9250000000	   7.0769500000
O	  24.4098000000	  38.6809000000	   6.8937900000
C	  23.5128000000	  40.6948000000	   6.1227900000
C	  24.7061000000	  39.8545000000	   6.1512900000
C	  23.0366000000	  38.6215000000	   6.8728200000
H	  23.0322000000	  40.7644000000	   5.1355800000
H	  23.6751000000	  41.7059000000	   6.4429100000
H	  25.0814000000	  39.7357000000	   5.1284200000
H	  25.5132000000	  40.3712000000	   6.6191500000
H	  22.6338000000	  38.0662000000	   7.6723000000
H	  22.7241000000	  38.2562000000	   5.8860100000
N	  22.1408000000	  43.6006000000	  11.3314000000
S	  22.5390000000	  43.6562000000	   9.8029200000
O	  22.5931000000	  42.4470000000	   9.0267200000
O	  21.9549000000	  44.7906000000	   9.1576400000
C	  24.2704000000	  44.0794000000	  10.0340000000
F	  24.9903000000	  43.7611000000	   9.0100200000
F	  24.8627000000	  43.4053000000	  11.0166000000
F	  24.4483000000	  45.4132000000	  10.2933000000
S	  21.4042000000	  42.4221000000	  12.0703000000
O	  21.8441000000	  42.2761000000	  13.4609000000
O	  21.2631000000	  41.2430000000	  11.2971000000
C	  19.7796000000	  43.1654000000	  12.2245000000
F	  19.8932000000	  44.2521000000	  13.0126000000
F	  19.3280000000	  43.5422000000	  11.0524000000
F	  18.7623000000	  42.3956000000	  12.7304000000
N	  20.0687000000	  36.4196000000	   9.2750900000
S	  19.6035000000	  37.9054000000	   9.4931200000
O	  20.6331000000	  38.8704000000	   9.2447900000
O	  18.3088000000	  38.1255000000	   8.9619000000
C	  19.3383000000	  38.0440000000	  11.3697000000
F	  18.7585000000	  39.2008000000	  11.6760000000
F	  20.4266000000	  37.8679000000	  12.0837000000
F	  18.4259000000	  37.1778000000	  11.7282000000
S	  21.4748000000	  35.6854000000	   9.0363800000
O	  22.4747000000	  36.2630000000	   9.9408900000
O	  21.6756000000	  35.3371000000	   7.6727100000
C	  21.0279000000	  34.0839000000	   9.8711300000
F	  21.8799000000	  33.1242000000	   9.7504500000
F	  20.8088000000	  34.2148000000	  11.1854000000
F	  19.8743000000	  33.6425000000	   9.5229400000
