38

Li	  57.7022000000	  50.1459000000	   2.3115300000
O	  59.3615801237	  49.5142000000	   1.9925400000
O	  61.5122101237	  49.3634000000	   2.2896700000
C	  59.8538901237	  48.8677000000	   0.7712453975
C	  61.3000801237	  48.4877000000	   1.2208300000
C	  60.3162201237	  49.3010000000	   2.9390500000
H	  59.2336201237	  47.9955000000	   0.5599453975
H	  59.7303601237	  49.5598000000	  -0.0174546025
H	  61.5248501237	  47.3966000000	   1.4977000000
H	  62.0296901237	  48.7621000000	   0.4186453975
H	  60.1294001237	  49.9865000000	   3.7975700000
H	  60.1724301237	  48.2889000000	   3.3927900000
O	  58.8452000000	  54.0702000000	   2.6207500000
O	  58.0006000000	  51.9322000000	   2.1910200000
C	  57.5749000000	  54.0130000000	   3.2968200000
C	  56.9351000000	  52.6977000000	   2.7549900000
C	  58.8593000000	  52.9154000000	   1.8375600000
H	  57.7137000000	  54.0311000000	   4.4145400000
H	  56.9239000000	  54.8124000000	   3.0035800000
H	  56.3680000000	  52.1231000000	   3.5038800000
H	  56.2321000000	  52.9336000000	   1.8597400000
H	  58.4744000000	  53.2741000000	   0.8746453975
H	  59.8825701237	  52.5338000000	   1.7185800000
N	  55.3233000000	  49.4462000000	  -1.1556546025
S	  56.2451000000	  50.5174000000	  -1.8557546025
O	  56.9899000000	  51.3178000000	  -0.9466546025
O	  56.8724000000	  50.1192000000	  -3.0661546025
C	  54.9193000000	  51.6329000000	  -2.4246546025
F	  54.5763000000	  52.5209000000	  -1.4712546025
F	  53.8345000000	  51.0235000000	  -2.8495546025
F	  55.3542000000	  52.3970000000	  -3.4453546025
S	  55.4355000000	  48.9460000000	   0.3120453975
O	  56.5807000000	  49.5469000000	   1.0269800000
O	  55.2308000000	  47.5302000000	   0.4388453975
C	  53.8898000000	  49.5989000000	   0.9180100000
F	  52.8935000000	  49.0516000000	   0.2361453975
F	  53.7224000000	  49.2315000000	   2.1711400000
F	  53.8339000000	  50.9051000000	   0.9139750000
