53

Li	  40.4966000000	  39.3195000000	  14.9130000000
F	  37.9202000000	  41.1178000000	  14.2119000000
F	  38.7057000000	  41.3913000000	  12.2011000000
F	  36.2780000000	  42.2017000000	  12.5300000000
F	  36.2531000000	  40.5760000000	  11.1421000000
O	  39.6306000000	  38.9306000000	  13.1952000000
O	  41.9322000000	  38.3842000000	  14.3848000000
C	  37.8965000000	  40.6446000000	  12.9418000000
C	  38.3475000000	  39.1406000000	  12.8144000000
C	  40.2127000000	  37.6415000000	  12.9965000000
C	  36.4624000000	  40.8798000000	  12.4483000000
C	  41.7464000000	  37.7258000000	  13.1271000000
C	  43.3526000000	  38.5835000000	  14.6647000000
H	  37.8157000000	  38.4648000000	  13.4850000000
H	  38.1924000000	  38.8148000000	  11.7477000000
H	  39.6304000000	  36.9911000000	  13.7533000000
H	  39.9057000000	  37.1894000000	  12.0514000000
H	  35.8175000000	  40.2946000000	  13.1145000000
H	  42.1844000000	  36.7530000000	  13.1628000000
H	  42.2407000000	  38.1975000000	  12.3230000000
H	  43.9767000000	  38.7237000000	  13.7809000000
H	  43.4849000000	  39.4544000000	  15.2819000000
H	  43.6100000000	  37.6734000000	  15.2533000000
N	  38.4961000000	  36.0693000000	  16.1043000000
S	  39.0827000000	  37.1974000000	  16.9873000000
O	  39.3884000000	  38.4172000000	  16.3202000000
O	  38.4837000000	  37.2702000000	  18.3192000000
C	  40.8418000000	  36.4027000000	  17.2495000000
F	  41.5574000000	  37.1185000000	  18.0677000000
F	  41.4768000000	  36.3078000000	  16.1030000000
F	  40.8335000000	  35.2223000000	  17.8163000000
S	  37.0847000000	  35.4718000000	  16.0981000000
O	  36.2374000000	  36.0322000000	  15.0662000000
O	  36.4715000000	  35.1841000000	  17.3607000000
C	  37.3856000000	  33.7359000000	  15.4914000000
F	  36.2717000000	  33.1807000000	  15.0480000000
F	  38.2663000000	  33.6834000000	  14.4939000000
F	  37.8022000000	  32.9431000000	  16.4881000000
N	  41.9745000000	  42.6835000000	  16.0061000000
S	  41.7142000000	  41.6601000000	  17.1802000000
O	  41.5117000000	  40.2986000000	  16.7741000000
O	  42.6274000000	  41.9050000000	  18.3376000000
C	  40.0183000000	  42.1636000000	  17.5776000000
F	  39.1381000000	  41.6242000000	  16.7792000000
F	  39.8547000000	  43.4597000000	  17.4367000000
F	  39.7053000000	  41.9185000000	  18.8345000000
S	  41.9230000000	  42.3945000000	  14.4887000000
O	  41.1544000000	  41.1807000000	  14.1143000000
O	  43.1451000000	  42.6625000000	  13.6656000000
C	  40.7938000000	  43.7694000000	  14.0048000000
F	  39.5511000000	  43.5513000000	  14.3506000000
F	  41.1961000000	  44.9061000000	  14.6436000000
F	  40.7024000000	  44.0115000000	  12.6701000000
