60

Li	  56.0231000000	  49.9447000000	  39.0396000000
F	  56.6115000000	  52.3761000000	  41.7750000000
F	  56.9429000000	  52.5099000000	  39.5809000000
F	  57.5894000000	  54.8708000000	  40.6347000000
F	  55.6737000000	  55.1486000000	  39.7358000000
O	  54.6412000000	  51.0838000000	  40.0595000000
O	  53.1778000000	  51.4334000000	  42.6311000000
C	  56.1932000000	  52.9328000000	  40.6009000000
C	  54.7271000000	  52.4642000000	  40.2370000000
C	  53.2984000000	  50.6365000000	  40.2993000000
C	  56.3773000000	  54.4529000000	  40.6598000000
C	  53.1958000000	  50.2642000000	  41.7883000000
C	  53.9270000000	  51.3009000000	  43.8183000000
H	  54.2164000000	  52.8184000000	  41.1521000000
H	  54.2723000000	  52.9956000000	  39.4039000000
H	  52.5160000000	  51.3735000000	  40.0462000000
H	  53.2677000000	  49.7931000000	  39.6393000000
H	  55.9854000000	  54.8707000000	  41.5966000000
H	  52.2991000000	  49.6091000000	  41.9335000000
H	  54.1018000000	  49.7729000000	  42.0582000000
H	  53.5980000000	  50.5417000000	  44.5236000000
H	  54.9021000000	  50.9965000000	  43.5208000000
H	  54.0286000000	  52.3632000000	  44.1893000000
F	  54.7329000000	  45.2337000000	  37.9261000000
F	  56.1404000000	  45.7296000000	  39.5298000000
F	  54.8790000000	  43.4558000000	  39.8593000000
F	  54.1278000000	  45.0321000000	  41.3476000000
O	  55.0418000000	  48.1118000000	  38.6225000000
O	  55.3806000000	  50.4540000000	  37.3321000000
C	  54.8737000000	  45.6138000000	  39.1799000000
C	  54.2969000000	  47.0900000000	  39.2866000000
C	  55.1886000000	  47.9804000000	  37.1718000000
C	  54.1874000000	  44.5682000000	  40.0825000000
C	  55.6778000000	  49.3110000000	  36.5511000000
C	  55.1962000000	  51.5220000000	  36.4179000000
H	  53.2755000000	  47.2419000000	  38.9074000000
H	  54.2799000000	  47.3492000000	  40.3540000000
H	  55.8827000000	  47.1240000000	  36.9041000000
H	  54.3002000000	  47.8479000000	  36.6044000000
H	  53.2045000000	  44.2826000000	  39.7546000000
H	  56.7353000000	  49.3266000000	  36.3100000000
H	  55.3162000000	  49.3567000000	  35.5293000000
H	  56.1296000000	  51.7539000000	  36.0312000000
H	  54.5743000000	  51.2664000000	  35.5749000000
H	  54.8615000000	  52.4000000000	  37.0038000000
N	  59.0738301237	  49.1235000000	  41.3944000000
S	  59.4186401237	  49.0433000000	  39.8194000000
O	  59.9745101237	  47.7801000000	  39.3798000000
O	  58.4255000000	  49.6287000000	  38.9666000000
C	  60.8315701237	  50.1852000000	  39.6616000000
F	  60.4696801237	  51.4220000000	  40.0072000000
F	  61.3577401237	  50.1311000000	  38.4305000000
F	  61.8808601237	  49.8509000000	  40.4577000000
S	  57.5973000000	  49.2981000000	  42.0217000000
O	  56.6307000000	  49.4793000000	  40.9851000000
O	  57.5281000000	  49.9660000000	  43.2898000000
C	  57.1871000000	  47.4790000000	  42.5265000000
F	  57.6244000000	  46.6418000000	  41.5831000000
F	  57.8034000000	  47.1751000000	  43.6843000000
F	  55.9109000000	  47.4079000000	  42.7404000000
