57

Li	  44.0164000000	  51.5555000000	  14.2166000000
O	  46.7637000000	  48.5644000000	  13.9003000000
O	  45.0955000000	  50.0930000000	  14.4230000000
C	  46.0097000000	  48.0503000000	  14.9714000000
C	  45.2273000000	  49.2034000000	  15.5062000000
C	  45.8437000000	  49.5129000000	  13.3844000000
H	  45.4501000000	  47.1555000000	  14.5957000000
H	  46.4890000000	  47.6120000000	  15.8542000000
H	  44.2122000000	  48.9808000000	  15.9477000000
H	  45.7947000000	  49.6826000000	  16.2881000000
H	  46.4525000000	  50.2243000000	  12.8286000000
H	  45.1392000000	  49.0376000000	  12.5921000000
N	  40.5649000000	  52.9489000000	  12.6841000000
S	  42.0180000000	  53.3443000000	  12.9967000000
O	  42.2050000000	  54.2572000000	  14.1368000000
O	  42.9229000000	  52.2881000000	  12.8598000000
C	  42.3727000000	  54.2990000000	  11.4772000000
F	  41.6448000000	  55.4221000000	  11.4080000000
F	  42.3024000000	  53.5988000000	  10.3547000000
F	  43.7036000000	  54.7378000000	  11.5382000000
S	  39.2736000000	  53.1628000000	  13.5082000000
O	  39.3633000000	  53.9389000000	  14.7119000000
O	  38.4237000000	  51.9574000000	  13.5214000000
C	  38.2861000000	  54.2497000000	  12.4291000000
F	  37.1224000000	  54.3046000000	  13.0571000000
F	  38.7529000000	  55.4684000000	  12.3308000000
F	  38.0681000000	  53.6922000000	  11.2135000000
N	  46.2484000000	  53.9224000000	  17.1314000000
S	  45.4024000000	  54.1640000000	  15.8205000000
O	  45.1255000000	  52.9998000000	  14.9967000000
O	  44.3943000000	  55.1843000000	  16.0545000000
C	  46.6976000000	  55.1250000000	  14.8653000000
F	  46.2543000000	  55.4982000000	  13.6441000000
F	  47.7911000000	  54.4731000000	  14.6112000000
F	  47.0250000000	  56.2444000000	  15.5571000000
S	  45.7474000000	  53.6233000000	  18.5817000000
O	  44.3133000000	  53.6903000000	  18.7939000000
O	  46.6313000000	  54.1221000000	  19.6376000000
C	  45.9455000000	  51.8449000000	  18.7923000000
F	  47.0662000000	  51.4127000000	  18.2498000000
F	  45.8363000000	  51.4676000000	  20.0858000000
F	  45.1339000000	  51.1284000000	  18.0322000000
N	  41.8351000000	  49.3015000000	  16.8510000000
S	  41.1222000000	  47.9658000000	  16.8034000000
O	  40.6532000000	  47.4880000000	  18.1018000000
O	  40.2317000000	  47.9106000000	  15.6813000000
C	  42.4050000000	  46.7736000000	  16.2383000000
F	  43.4724000000	  46.6832000000	  16.9887000000
F	  42.8885000000	  47.1834000000	  15.0557000000
F	  41.8331000000	  45.5416000000	  16.1261000000
S	  41.4252000000	  50.6426000000	  16.1488000000
O	  40.1488000000	  50.5905000000	  15.4933000000
O	  42.5121000000	  51.2481000000	  15.4134000000
C	  41.2616000000	  51.6761000000	  17.5523000000
F	  42.3431000000	  51.8406000000	  18.2611000000
F	  40.8396000000	  52.8808000000	  17.1694000000
F	  40.3704000000	  51.2235000000	  18.4056000000
