39

Li	  48.1941000000	   8.8470300000	  50.8174000000
O	  49.9811000000	   8.2793100000	  52.2845000000
O	  50.3491000000	   8.3371500000	  54.4181000000
C	  49.5331000000	   7.0198300000	  52.7440000000
C	  49.6560000000	   7.1465200000	  54.2081000000
C	  50.8645000000	   8.7321000000	  53.2547000000
H	  48.5050000000	   6.9274000000	  52.4949000000
H	  50.0745000000	   6.2238500000	  52.2332000000
H	  48.7562000000	   7.0098000000	  54.8268000000
H	  50.1204000000	   6.2903800000	  54.5095000000
H	  51.8059000000	   8.2269800000	  53.1410000000
H	  50.9090000000	   9.7784800000	  53.2950000000
O	  50.8702000000	  10.7585000000	  48.6201000000
O	  49.4282000000	  10.1896000000	  50.2071000000
C	  50.6877000000	  11.9129000000	  49.4991000000
C	  49.7560000000	  11.4786000000	  50.6305000000
C	  50.5379000000	   9.7524600000	  49.4874000000
H	  51.5548000000	  12.2941000000	  49.9143000000
H	  50.3843000000	  12.8089000000	  48.9209000000
H	  50.2507000000	  11.4187000000	  51.5629000000
H	  48.8562000000	  12.0802000000	  50.8779000000
H	  50.2074000000	   8.9099100000	  48.9449000000
H	  51.4323000000	   9.4450700000	  50.0441000000
S	  48.5153000000	   6.7683700000	  49.8693000000
S	  49.5632000000	   5.8496300000	  48.2522000000
S	  50.5792000000	   7.1639700000	  46.8768000000
S	  54.7397000000	   4.4024700000	  46.0086000000
S	  53.6717000000	   2.5700200000	  46.1134000000
S	  53.8412000000	   1.6427800000	  44.2255000000
S	  53.4757000000	   6.0465500000	  45.3827000000
S	  52.6669000000	   7.1815600000	  46.9841000000
S	  41.3005000000	  11.5051000000	  51.5752000000
S	  40.7332000000	  12.0887000000	  49.6026000000
S	  40.6008000000	  10.3538000000	  48.3076000000
S	  45.4675000000	   8.0182800000	  48.8053000000
S	  46.2391000000	   9.6325900000	  49.9710000000
S	  46.5365000000	   8.9915600000	  52.0304000000
S	  43.3056000000	   8.0161700000	  48.5732000000
S	  42.4961000000	   9.7391400000	  47.5431000000
