34

Li	  33.8526000000	  57.4881000000	  30.7263000000
O	  29.9863000000	  56.5582000000	  30.3925000000
O	  32.1030000000	  57.0159000000	  30.9262000000
C	  30.1127000000	  57.9377000000	  30.3511000000
C	  31.4650000000	  58.2401000000	  30.9517000000
C	  31.1237000000	  56.0308000000	  31.0745000000
H	  30.0563000000	  58.1539000000	  29.3036000000
H	  29.3233000000	  58.3848000000	  30.8773000000
H	  31.9669000000	  59.0110000000	  30.4495000000
H	  31.3242000000	  58.5716000000	  32.0222000000
H	  30.8715000000	  55.8903000000	  32.1732000000
H	  31.5528000000	  55.1840000000	  30.5825000000
O	  33.8209000000	  54.0278000000	  32.2181000000
O	  34.7448000000	  55.9855000000	  31.7283000000
C	  33.9459000000	  54.7248000000	  33.4594000000
C	  34.9389000000	  55.8373000000	  33.1863000000
C	  34.6899000000	  54.6646000000	  31.2820000000
H	  32.9770000000	  55.1478000000	  33.8068000000
H	  34.2507000000	  54.0680000000	  34.2395000000
H	  34.7446000000	  56.6767000000	  33.8634000000
H	  35.9219000000	  55.5102000000	  33.3783000000
H	  35.6898000000	  54.2440000000	  31.3957000000
H	  34.3749000000	  54.5488000000	  30.2431000000
O	  34.2651000000	  56.9550000000	  28.8065000000
O	  34.1856000000	  55.6168000000	  26.9649000000
C	  35.6381000000	  56.5934000000	  28.6264000000
C	  35.4314000000	  55.4025000000	  27.6233000000
C	  33.7541000000	  56.7913000000	  27.5308000000
H	  36.2525000000	  57.4795000000	  28.4739000000
H	  36.0989000000	  56.1502000000	  29.5214000000
H	  36.1646000000	  55.2311000000	  26.8935000000
H	  35.3414000000	  54.4872000000	  28.1729000000
H	  32.6958000000	  56.8650000000	  27.5277000000
H	  33.9900000000	  57.6700000000	  26.9036000000
