32

Li	  18.6917000000	  16.3130000000	  49.0286000000
N	  21.8787000000	  15.1789000000	  47.6386000000
S	  20.8385000000	  13.9532000000	  47.6103000000
O	  21.3750000000	  12.7644000000	  48.1358000000
O	  19.5388000000	  14.3297000000	  48.1202000000
C	  20.5298000000	  13.6584000000	  45.7842000000
F	  19.6575000000	  12.6785000000	  45.5775000000
F	  21.7086000000	  13.5173000000	  45.1075000000
F	  19.9056000000	  14.6942000000	  45.2285000000
S	  21.6089000000	  16.7219000000	  48.0545000000
O	  22.5259000000	  17.2397000000	  49.0705000000
O	  20.2266000000	  17.1328000000	  48.0853000000
C	  22.1602000000	  17.7342000000	  46.5379000000
F	  23.4489000000	  17.6842000000	  46.5087000000
F	  21.6828000000	  17.2565000000	  45.4062000000
F	  21.8017000000	  18.9758000000	  46.6161000000
S	  25.4302000000	  23.1008000000	  49.4441000000
S	  24.1254000000	  21.9588000000	  48.2433000000
S	  22.3511000000	  22.8710000000	  48.2302000000
S	  18.8283000000	  19.4541000000	  50.4954000000
S	  19.9517000000	  18.0428000000	  51.6082000000
S	  19.2830000000	  16.0440000000	  51.3057000000
S	  20.0376000000	  20.2156000000	  48.8883000000
S	  21.0852000000	  22.0065000000	  49.6049000000
S	   8.8331600000	  16.2629000000	  55.1094000000
S	   9.8120200000	  17.1409000000	  53.4169000000
S	   9.6668700000	  16.0156000000	  51.7048000000
S	  14.1302000000	  14.7798000000	  49.2168000000
S	  16.2264000000	  15.2112000000	  49.5229000000
S	  16.9318000000	  16.6708000000	  48.1236000000
S	  12.9925000000	  16.0361000000	  50.4151000000
S	  11.4963000000	  14.8706000000	  51.3291000000
