46

Li	  33.1883000000	  57.3552000000	  17.3523000000
O	  33.8293000000	  53.7394000000	  16.6761000000
O	  33.1407000000	  55.8645000000	  16.3071000000
C	  32.4451000000	  53.7475000000	  16.9470000000
C	  32.0186000000	  54.9796000000	  16.2096000000
C	  34.1615000000	  54.9489000000	  16.1422000000
H	  31.8930000000	  52.8619000000	  16.7218000000
H	  32.4887000000	  53.9918000000	  18.0302000000
H	  31.7522000000	  54.6582000000	  15.1928000000
H	  31.1665000000	  55.3103000000	  16.7232000000
H	  34.9874000000	  55.5172000000	  16.5446000000
H	  34.5398000000	  54.6587000000	  15.1403000000
O	  35.6698000000	  59.3229480859	  14.6633000000
O	  34.1646000000	  58.6646000000	  16.1182000000
C	  34.4751000000	  59.9303780859	  14.1902000000
C	  33.4804000000	  59.6610080859	  15.3685000000
C	  35.4470000000	  59.0215480859	  16.0126000000
H	  34.7341000000	  61.0818680859	  14.2414000000
H	  34.0859000000	  59.4959280859	  13.2899000000
H	  33.4047000000	  60.6015680859	  15.8860000000
H	  32.5934000000	  59.1766080859	  15.0815000000
H	  35.9240000000	  58.0796000000	  16.3658000000
H	  35.8226000000	  59.8541780859	  16.6219000000
N	  29.1101000000	  57.5421000000	  17.6971000000
S	  28.1184000000	  57.0498000000	  18.7935000000
O	  28.4345000000	  57.4499000000	  20.1566000000
O	  26.7449000000	  57.0049000000	  18.3560000000
C	  28.4461000000	  55.2945000000	  18.9379000000
F	  27.7577000000	  54.7300000000	  19.9206000000
F	  29.7596000000	  55.0547000000	  19.0560000000
F	  28.0785000000	  54.6700000000	  17.8362000000
S	  30.1894000000	  58.6246000000	  17.8883000000
O	  31.4377000000	  58.2349000000	  17.3998000000
O	  30.0909000000	  59.3571580859	  19.0918000000
C	  29.8039000000	  59.9502180859	  16.7218000000
F	  28.5325000000	  60.2777680859	  16.7641000000
F	  30.5110000000	  61.0794880859	  17.0051000000
F	  30.0317000000	  59.6147480859	  15.4517000000
S	  37.6708000000	  57.4942000000	  21.1389000000
S	  37.7578000000	  55.8599000000	  22.4070000000
S	  36.8792000000	  56.1702000000	  24.3443000000
S	  32.8243000000	  55.5989000000	  21.8404000000
S	  32.7031000000	  57.1437000000	  20.3172000000
S	  34.3902000000	  57.2607000000	  19.0055000000
S	  33.3502000000	  56.3524000000	  23.7397000000
S	  34.9799000000	  55.2246000000	  24.5458000000
