28

Li	  42.5147000000	  56.7781000000	  30.2688000000
O	  41.0426000000	  60.0494080859	  30.8607000000
O	  41.2737000000	  58.0227000000	  29.7945000000
C	  40.4329000000	  59.1228380859	  31.6300000000
C	  40.1804000000	  57.9748000000	  30.5904000000
C	  41.4976000000	  59.4232180859	  29.7023000000
H	  41.0401000000	  58.7186000000	  32.3589000000
H	  39.4413000000	  59.3245180859	  31.9919000000
H	  40.1837000000	  57.0533000000	  30.9969000000
H	  39.3081000000	  58.1852000000	  30.0025000000
H	  40.9317000000	  59.7282980859	  28.8535000000
H	  42.5559000000	  59.5537680859	  29.4586000000
S	  44.3440000000	  57.2491000000	  31.0194000000
S	  44.5742000000	  55.5583000000	  32.1329000000
S	  42.7965000000	  55.3630000000	  33.2275000000
S	  43.1722000000	  59.6031680859	  34.9038000000
S	  42.2639000000	  61.4252980859	  34.6767000000
S	  43.3714000000	  63.0381780859	  35.2662000000
S	  41.9418000000	  57.8891000000	  35.3214000000
S	  42.9787000000	  56.0949000000	  35.0840000000
S	  41.4375000000	  54.8514000000	  29.6800000000
S	  41.8878000000	  55.9418000000	  27.8926000000
S	  43.9260000000	  56.5870000000	  27.8076000000
S	  47.3624000000	  55.2575000000	  24.8149000000
S	  47.7535000000	  55.0751000000	  22.7871000000
S	  49.5846000000	  55.8770000000	  22.2441000000
S	  46.5355000000	  56.9862000000	  25.6067000000
S	  44.4137000000	  57.1923000000	  25.8817000000
