57

Li	  30.0077000000	   3.6470500000	  35.6207000000
O	  33.8254000000	   2.6771400000	  35.5235000000
O	  31.6922000000	   3.0565000000	  36.1312000000
C	  33.0952000000	   1.5012100000	  35.5861000000
C	  32.1936000000	   1.9225000000	  36.7460000000
C	  32.8111000000	   3.5814400000	  35.4799000000
H	  32.4889000000	   1.2838800000	  34.6624000000
H	  33.6607000000	   0.5974819141	  35.7871000000
H	  31.4655000000	   1.1629100000	  37.1642000000
H	  32.8235000000	   2.1792100000	  37.5226000000
H	  33.2259000000	   4.5156700000	  35.9623000000
H	  32.6306000000	   3.7339000000	  34.4089000000
N	  29.5504000000	  -0.4184180859	  33.6586000000
S	  29.2501000000	   0.5073819141	  34.8358000000
O	  29.2831000000	  -0.1826180859	  36.1355000000
O	  29.7466000000	   1.8844300000	  34.7184000000
C	  27.4816000000	   0.6884819141	  34.5452000000
F	  26.7826000000	   1.1891400000	  35.4983000000
F	  27.0093000000	  -0.5720180859	  34.4133000000
F	  27.1772000000	   1.3590700000	  33.3923000000
S	  30.6364000000	  -1.5869180859	  33.5836000000
O	  29.9964000000	  -2.8636180859	  33.3966000000
O	  31.6039000000	  -1.4586180859	  34.6402000000
C	  31.5788000000	  -1.2371180859	  32.0121000000
F	  32.2513000000	  -0.0680180859	  32.1507000000
F	  32.4772000000	  -2.1038180859	  31.6655000000
F	  30.7912000000	  -1.1009180859	  30.9557000000
N	  30.4775000000	   4.1050900000	  31.4632000000
S	  29.5915000000	   3.5317500000	  30.2748000000
O	  28.1686000000	   3.7422400000	  30.4592000000
O	  30.1221000000	   3.7481200000	  28.9330000000
C	  29.9858000000	   1.7267300000	  30.5518000000
F	  30.0293000000	   1.3937300000	  31.8907000000
F	  31.1140000000	   1.3260100000	  29.9901000000
F	  29.0208000000	   0.9968910000	  30.0269000000
S	  30.0448000000	   5.1173500000	  32.5708000000
O	  29.9999000000	   4.5429800000	  33.8760000000
O	  29.0988000000	   6.1217600000	  32.2666000000
C	  31.5003000000	   6.2518600000	  32.6412000000
F	  32.4755000000	   5.6282600000	  33.2549000000
F	  31.8309000000	   6.6951100000	  31.4721000000
F	  31.2342000000	   7.3001900000	  33.4093000000
N	  28.8969000000	   4.7294900000	  38.7517000000
S	  27.9804000000	   3.6386300000	  38.1717000000
O	  26.5661000000	   3.9425500000	  38.3443000000
O	  28.3956000000	   2.9895800000	  36.9555000000
C	  28.2516000000	   2.2768000000	  39.4198000000
F	  29.5428000000	   2.0130500000	  39.6152000000
F	  27.7661000000	   1.1564200000	  38.9962000000
F	  27.7434000000	   2.5592400000	  40.5999000000
S	  29.8171000000	   5.6870900000	  37.8629000000
O	  29.4849000000	   7.0852800000	  37.9503000000
O	  30.1818000000	   5.2640100000	  36.5414000000
C	  31.3312000000	   5.6721900000	  38.8026000000
F	  32.2062000000	   6.5384300000	  38.2148000000
F	  31.1700000000	   5.9485600000	  40.1005000000
F	  31.9829000000	   4.5616600000	  38.7908000000
