50

Li	  24.6212000000	  22.8514000000	  54.5165000000
O	  22.2061000000	  23.0382000000	  50.9275000000
O	  23.5866000000	  22.7465000000	  52.8088000000
C	  21.9169000000	  21.7456000000	  51.4820000000
C	  23.2066000000	  21.4804000000	  52.3004000000
C	  23.0917000000	  23.6084000000	  51.8776000000
H	  21.0543000000	  21.6759000000	  52.1209000000
H	  21.6298000000	  20.9672000000	  50.8177000000
H	  22.9763000000	  20.8313000000	  53.1555000000
H	  24.0199000000	  21.0454000000	  51.7261000000
H	  23.9542000000	  23.9481000000	  51.3153000000
H	  22.5901000000	  24.4300000000	  52.2146000000
N	  26.0428000000	  18.6048000000	  55.1327000000
S	  25.5845000000	  17.9106000000	  53.7790000000
O	  25.4166000000	  16.4932000000	  54.0112000000
O	  24.5316000000	  18.5886000000	  53.1092000000
C	  26.9989000000	  18.1202000000	  52.6572000000
F	  28.0439000000	  17.2220000000	  52.8569000000
F	  27.5390000000	  19.3225000000	  52.7510000000
F	  26.6437000000	  17.9770000000	  51.3795000000
S	  25.3661000000	  19.8807000000	  55.8223000000
O	  24.5509000000	  19.6024000000	  57.0236000000
O	  24.9187000000	  20.9986000000	  55.0020000000
C	  26.9247000000	  20.6046000000	  56.4829000000
F	  27.7006000000	  20.9050000000	  55.5000000000
F	  26.7139000000	  21.7352000000	  57.1767000000
F	  27.5603000000	  19.7144000000	  57.2240000000
N	  28.4274000000	  24.1873000000	  54.6709000000
S	  28.0897000000	  23.5585000000	  53.2460000000
O	  29.1876000000	  22.7984000000	  52.6444000000
O	  26.7475000000	  23.1430000000	  53.1032000000
C	  28.1384000000	  25.0597000000	  52.2969000000
F	  27.6692000000	  24.8884000000	  51.0893000000
F	  29.4017000000	  25.5648000000	  52.2010000000
F	  27.4205000000	  26.0169000000	  52.8210000000
S	  29.8541000000	  24.2405000000	  55.3992000000
O	  31.0266000000	  23.7635000000	  54.6843000000
O	  29.5755000000	  23.7685000000	  56.7480000000
C	  30.1412000000	  25.9990000000	  55.6670000000
F	  30.3435000000	  26.6478000000	  54.5473000000
F	  29.1661000000	  26.5912000000	  56.4092000000
F	  31.2900000000	  26.1220000000	  56.3325000000
S	  24.9071000000	  24.2568000000	  56.2169000000
S	  23.7563000000	  25.1985000000	  54.7086000000
S	  21.7266000000	  25.7830000000	  55.2624000000
S	  20.7557000000	  21.3573000000	  55.8567000000
S	  19.7891000000	  19.9931000000	  54.5420000000
S	  18.4989000000	  18.4784000000	  55.3504000000
S	  19.6580000000	  23.0978000000	  55.9387000000
S	  20.1787000000	  24.4963000000	  54.5025000000
