39

Li	  45.1706000000	  54.2541000000	  24.6900000000
O	  46.7635000000	  55.1096000000	  24.1141000000
O	  47.4776000000	  57.2177000000	  24.0225000000
C	  48.0714000000	  54.9423000000	  24.7406000000
C	  48.5545000000	  56.3922000000	  24.5042000000
C	  46.6811000000	  56.2533000000	  23.3597000000
H	  48.0579000000	  54.7214000000	  25.7793000000
H	  48.6551000000	  54.2094000000	  24.2141000000
H	  48.8418000000	  56.8292000000	  25.5392000000
H	  49.3975000000	  56.4021000000	  23.7782000000
H	  46.9416000000	  56.1211000000	  22.2931000000
H	  45.6444000000	  56.6114000000	  23.3503000000
O	  42.1292000000	  55.9015000000	  22.0298000000
O	  43.3836000000	  55.0142000000	  23.7517000000
C	  41.7507000000	  56.5048000000	  23.2874000000
C	  42.2382000000	  55.6156000000	  24.3210000000
C	  43.0377000000	  54.8716000000	  22.3934000000
H	  42.1886000000	  57.4281000000	  23.3671000000
H	  40.6312000000	  56.6227000000	  23.3688000000
H	  42.4466000000	  56.0429000000	  25.3115000000
H	  41.4183000000	  54.8593000000	  24.5770000000
H	  42.5752000000	  53.8878000000	  22.1520000000
H	  43.9857000000	  55.0808000000	  21.8071000000
S	  44.9826000000	  54.3912000000	  26.9661000000
S	  45.3033000000	  56.3550000000	  27.4165000000
S	  45.6142000000	  56.4304000000	  29.4607000000
S	  41.3854000000	  56.1264000000	  33.0885000000
S	  42.2707000000	  56.5905000000	  34.9234000000
S	  41.6052000000	  58.3708000000	  35.8435000000
S	  42.9152000000	  55.2640000000	  31.9058000000
S	  43.6943000000	  56.7345000000	  30.5505000000
S	  44.8022000000	  52.0528000000	  23.7569000000
S	  45.9578000000	  52.9503000000	  22.1197000000
S	  45.3779000000	  52.2435000000	  20.2865000000
S	  44.4606000000	  54.5080000000	  15.9492000000
S	  46.1948000000	  54.4273000000	  14.6392000000
S	  45.6822000000	  53.2899000000	  12.8962000000
S	  44.8819000000	  54.7805000000	  18.0159000000
S	  43.9090000000	  53.5309000000	  19.2850000000
