53

Li	  23.1143000000	  29.2417000000	  26.9631000000
O	  21.5144000000	  29.8613000000	  27.8410000000
O	  19.5378000000	  29.3021000000	  28.7066000000
C	  21.7626000000	  30.1434000000	  29.1682000000
C	  20.3987000000	  29.7312000000	  29.7789000000
C	  20.1758000000	  29.9718000000	  27.6829000000
H	  22.6368000000	  29.5274000000	  29.5138000000
H	  21.9643000000	  31.1642000000	  29.4870000000
H	  20.5882000000	  28.8711000000	  30.3652000000
H	  19.8434000000	  30.4850000000	  30.3239000000
H	  19.7545000000	  30.9942000000	  27.6630000000
H	  19.9003000000	  29.4517000000	  26.7624000000
O	  22.9609000000	  27.3245000000	  26.4514000000
O	  23.2628000000	  25.1389000000	  26.9011000000
C	  21.7271000000	  26.7495000000	  26.3531000000
C	  21.8876000000	  25.4507000000	  27.1657000000
C	  23.8857000000	  26.2811000000	  26.3181000000
H	  21.0277000000	  27.4944000000	  26.6648000000
H	  21.6166000000	  26.5951000000	  25.2815000000
H	  21.7892000000	  25.4900000000	  28.2830000000
H	  21.1490000000	  24.7073000000	  26.8345000000
H	  24.0269000000	  26.0189000000	  25.3051000000
H	  24.8545000000	  26.5142000000	  26.7694000000
N	  26.4174000000	  30.8163000000	  28.0507000000
S	  25.8046000000	  29.4870000000	  28.7102000000
O	  25.9073000000	  29.4622000000	  30.1122000000
O	  24.5787000000	  29.0545000000	  28.1018000000
C	  26.9985000000	  28.2316000000	  28.0975000000
F	  26.7310000000	  27.9251000000	  26.8723000000
F	  26.7921000000	  27.1108000000	  28.7767000000
F	  28.2150000000	  28.6412000000	  28.2263000000
S	  25.6092000000	  31.8599000000	  27.1699000000
O	  24.1740000000	  31.6368000000	  27.1380000000
O	  26.2974000000	  32.2029000000	  25.9183000000
C	  25.7762000000	  33.3371000000	  28.1866000000
F	  25.0540000000	  34.3709000000	  27.9143000000
F	  25.4319000000	  32.9382000000	  29.4738000000
F	  26.9748000000	  33.8041000000	  28.1882000000
N	  22.5662000000	  30.2791000000	  22.8913000000
S	  23.7663000000	  30.2034000000	  23.8739000000
O	  24.6969000000	  31.3267000000	  23.7468000000
O	  23.4681000000	  29.8776000000	  25.2403000000
C	  24.7627000000	  28.7870000000	  23.2690000000
F	  25.6694000000	  28.3089000000	  24.1120000000
F	  25.3162000000	  29.0082000000	  22.0626000000
F	  23.9621000000	  27.7539000000	  23.1280000000
S	  21.0764000000	  30.0418000000	  23.3638000000
O	  20.7201000000	  30.9045000000	  24.3779000000
O	  20.6516000000	  28.6627000000	  23.4441000000
C	  20.1594000000	  30.6988000000	  21.8794000000
F	  20.5489000000	  31.9587000000	  21.6720000000
F	  20.4076000000	  29.9479000000	  20.8353000000
F	  18.8987000000	  30.6683000000	  21.9999000000
