57

Li	  31.8859000000	  38.2435000000	   9.3111300000
O	  32.3969000000	  37.7097000000	   5.5307700000
O	  31.5515000000	  37.4049000000	   7.6353200000
C	  31.9349000000	  36.3514000000	   5.5528700000
C	  31.6597000000	  36.0922000000	   7.0014900000
C	  31.6593000000	  38.2790000000	   6.5494700000
H	  31.0797000000	  36.4228000000	   4.8827300000
H	  32.6366000000	  35.7505000000	   5.0752300000
H	  30.7746000000	  35.3844000000	   7.1542200000
H	  32.5224000000	  35.5233000000	   7.3791800000
H	  32.0704000000	  39.2573000000	   6.7763200000
H	  30.6968000000	  38.6416000000	   6.2136700000
N	  28.4978000000	  40.6872000000	   9.9099700000
S	  28.0099000000	  42.0857000000	   9.4072600000
O	  27.9858000000	  42.2460000000	   7.9622200000
O	  26.9598000000	  42.6043000000	  10.2206000000
C	  29.4178000000	  43.1097000000	   9.8873000000
F	  29.2367000000	  44.3901000000	   9.8624300000
F	  30.4613000000	  42.8391000000	   9.0170500000
F	  29.7593000000	  42.7692000000	  11.1321000000
S	  28.8803000000	  39.3878000000	   9.0913300000
O	  30.0179000000	  38.7414000000	   9.6689500000
O	  28.8591000000	  39.5947000000	   7.6907400000
C	  27.5490000000	  38.2085000000	   9.3544500000
F	  26.4460000000	  38.7707000000	   9.1461000000
F	  27.6405000000	  37.2127000000	   8.4902000000
F	  27.5858000000	  37.5963000000	  10.5661000000
N	  34.8504000000	  40.3247000000	   9.1920300000
S	  35.0052000000	  38.7953000000	   9.3984000000
O	  35.5503000000	  38.4593000000	  10.6833000000
O	  33.9449000000	  38.0213000000	   8.8295800000
C	  36.3813000000	  38.5122000000	   8.2898100000
F	  36.7503000000	  37.2209000000	   8.3844000000
F	  37.3907000000	  39.3003000000	   8.6388900000
F	  36.1785000000	  38.8186000000	   6.9997200000
S	  33.5949000000	  41.1778000000	   8.8169200000
O	  32.3236000000	  40.5488000000	   8.9385900000
O	  33.9194000000	  41.9333000000	   7.5961500000
C	  33.6574000000	  42.4103000000	  10.1555000000
F	  32.8589000000	  43.4286000000	   9.8961600000
F	  33.2514000000	  41.9471000000	  11.2766000000
F	  34.9001000000	  42.8678000000	  10.3418000000
N	  32.6730000000	  36.6324000000	  12.5165000000
S	  32.0710000000	  35.7396000000	  11.3924000000
O	  31.4525000000	  36.4573000000	  10.3136000000
O	  32.8791000000	  34.5891000000	  11.0655000000
C	  30.6130000000	  35.0510000000	  12.1168000000
F	  30.8488000000	  34.5115000000	  13.3250000000
F	  30.0888000000	  34.0274000000	  11.4443000000
F	  29.5816000000	  35.9125000000	  12.1856000000
S	  32.9224000000	  38.1475000000	  12.4894000000
O	  32.5317000000	  38.9438000000	  11.3440000000
O	  34.2459000000	  38.4947000000	  12.9704000000
C	  31.7602000000	  38.6184000000	  13.8752000000
F	  30.4758000000	  38.5396000000	  13.5435000000
F	  31.9486000000	  37.8217000000	  14.9657000000
F	  31.9529000000	  39.9070000000	  14.2831000000
