61

Li	  32.2612000000	  58.3712000000	  54.6209000000
O	  33.8391000000	  57.5105000000	  53.4687000000
O	  35.9697000000	  57.4738000000	  53.1076000000
C	  33.9589000000	  57.0026000000	  52.1231000000
C	  35.3991000000	  57.6060000000	  51.8560000000
C	  35.0708000000	  57.4290000000	  54.0598000000
H	  34.0028000000	  55.9141000000	  51.9974000000
H	  33.2861000000	  57.4787000000	  51.3736000000
H	  35.8985000000	  56.9460000000	  51.1787000000
H	  35.2755000000	  58.6475000000	  51.5579000000
H	  35.2130000000	  58.3429000000	  54.6657000000
H	  35.1962000000	  56.5599000000	  54.6832000000
O	  33.0299000000	  55.2332000000	  56.9605000000
O	  32.1518000000	  56.8069000000	  55.6385000000
C	  32.7163000000	  54.7079000000	  55.6877000000
C	  31.6414000000	  55.5891000000	  55.1874000000
C	  32.4769000000	  56.4958000000	  56.9769000000
H	  33.5495000000	  55.0451000000	  55.0532000000
H	  32.7388000000	  53.6659000000	  55.7335000000
H	  31.5535000000	  55.5558000000	  54.0684000000
H	  30.6886000000	  55.2908000000	  55.6119000000
H	  31.5772000000	  56.4266000000	  57.6750000000
H	  33.0766000000	  57.3093000000	  57.3725000000
N	  30.1475000000	  61.6864780859	  57.5211000000
S	  30.3055000000	  60.1206380859	  57.4550000000
O	  31.1144000000	  59.6173280859	  56.3944000000
O	  30.4219000000	  59.4117280859	  58.7284000000
C	  28.6090000000	  59.6441680859	  56.9107000000
F	  27.6841000000	  60.0803180859	  57.7129000000
F	  28.3871000000	  58.3315000000	  56.7805000000
F	  28.2577000000	  60.1897280859	  55.7518000000
S	  30.6706000000	  62.8188980859	  56.5773000000
O	  31.0731000000	  62.4532880859	  55.2289000000
O	  31.4588000000	  63.7740880859	  57.3191000000
C	  29.1144000000	  63.5653580859	  56.3653000000
F	  29.2228000000	  64.7092080859	  55.7438000000
F	  28.1861000000	  62.8282480859	  55.6804000000
F	  28.5238000000	  63.8433380859	  57.5418000000
N	  34.9574000000	  61.6215380859	  55.3008000000
S	  34.2927000000	  60.9136280859	  56.5222000000
O	  33.4125000000	  61.7035880859	  57.3090000000
O	  33.8516000000	  59.5859780859	  56.2183000000
C	  35.7394000000	  60.6962280859	  57.6836000000
F	  36.6075000000	  59.8859480859	  57.1152000000
F	  35.4291000000	  60.1613280859	  58.8933000000
F	  36.3656000000	  61.8127880859	  57.9104000000
S	  34.7136000000	  63.1111080859	  54.9368000000
O	  34.4009000000	  64.0986880859	  55.9770000000
O	  33.9383000000	  63.2171980859	  53.7084000000
C	  36.3968000000	  63.4233780859	  54.3616000000
F	  37.2261000000	  63.1878780859	  55.3071000000
F	  36.8237000000	  62.6975580859	  53.3297000000
F	  36.5561000000	  64.6846380859	  53.9319000000
S	  31.8714000000	  60.1270980859	  53.5483000000
S	  30.2656000000	  58.8542000000	  53.3721000000
S	  30.3965000000	  57.4848000000	  51.6807000000
S	  25.7891000000	  58.1519000000	  51.4477000000
S	  24.0397000000	  58.9907000000	  50.4628000000
S	  22.7556000000	  60.0679180859	  51.7401000000
S	  27.1148000000	  57.1285000000	  50.2427000000
S	  28.9965000000	  58.1192000000	  50.0677000000
