39

Li	  31.5832000000	   9.6504500000	  46.9240000000
N	  34.0907000000	   8.8185700000	  49.1358000000
S	  34.5320000000	   8.8044700000	  47.6208000000
O	  33.3562000000	   8.8030900000	  46.7548000000
O	  35.6121000000	   9.7099600000	  47.3079000000
C	  35.3440000000	   7.1671100000	  47.5115000000
F	  35.5501000000	   6.8002100000	  46.2340000000
F	  34.6298000000	   6.1549900000	  47.9632000000
F	  36.4729000000	   7.1921700000	  48.2049000000
S	  34.2515000000	   9.9528200000	  50.2027000000
O	  33.6047000000	   9.7386400000	  51.4862000000
O	  34.2758000000	  11.2977000000	  49.6371000000
C	  35.9811000000	   9.5434200000	  50.7738000000
F	  36.3031000000	  10.2032000000	  51.8636000000
F	  36.1288000000	   8.2563300000	  51.1025000000
F	  36.9767000000	   9.7667500000	  49.9738000000
N	  30.1392000000	   7.0483000000	  45.1714000000
S	  30.2622000000	   6.6956100000	  46.7291000000
O	  30.8742000000	   7.7493700000	  47.5571000000
O	  29.0727000000	   6.0464700000	  47.2093000000
C	  31.5992000000	   5.3884900000	  46.7056000000
F	  31.1940000000	   4.2062600000	  46.4098000000
F	  32.2278000000	   5.2392300000	  47.8486000000
F	  32.5922000000	   5.7478900000	  45.8825000000
S	  30.5510000000	   8.3468800000	  44.3121000000
O	  31.1964000000	   9.4045400000	  45.1062000000
O	  29.4816000000	   8.6938100000	  43.4108000000
C	  31.9198000000	   7.6074300000	  43.2468000000
F	  33.1365000000	   7.5792700000	  43.8158000000
F	  31.5070000000	   6.4568500000	  42.8024000000
F	  32.1708000000	   8.3297300000	  42.1794000000
S	  25.5560000000	  16.7715000000	  51.8167000000
S	  25.5057000000	  16.4780000000	  49.6754000000
S	  27.4016000000	  16.1461000000	  48.8694000000
S	  28.7611000000	  12.4963000000	  46.2889000000
S	  29.0198000000	  10.7818000000	  47.4264000000
S	  30.8919000000	  10.7091000000	  48.5145000000
S	  26.8911000000	  13.4205000000	  46.6718000000
S	  27.2680000000	  15.4887000000	  46.8884000000
