76

Li	  27.0238000000	  54.5745000000	  39.3164000000
N	  26.3328000000	  58.6383000000	  38.2014000000
S	  25.8211000000	  57.5178000000	  39.2137000000
O	  26.2182000000	  56.1686000000	  39.0299000000
O	  25.9852000000	  58.0197000000	  40.5551000000
C	  24.0307000000	  57.4625000000	  39.1225000000
F	  23.5060000000	  58.6440000000	  39.4796000000
F	  23.4203000000	  56.5506000000	  39.8698000000
F	  23.6907000000	  57.2338000000	  37.8735000000
S	  27.5578000000	  59.5632180859	  38.4393000000
O	  28.4684000000	  59.6296580859	  37.2876000000
O	  28.1802000000	  59.4405180859	  39.7274000000
C	  26.7465000000	  61.2108380859	  38.5670000000
F	  26.0709000000	  61.5629580859	  37.4706000000
F	  25.7944000000	  61.1693880859	  39.5027000000
F	  27.6049000000	  62.1293380859	  38.8728000000
N	  30.4003000000	  56.0116000000	  41.9471000000
S	  28.8307000000	  56.2498000000	  41.9814000000
O	  28.3525000000	  57.6047000000	  42.1262000000
O	  28.1705000000	  55.3398000000	  41.0635000000
C	  28.3438000000	  55.5628000000	  43.5892000000
F	  28.6552000000	  54.3035000000	  43.6533000000
F	  27.0259000000	  55.5106000000	  43.6775000000
F	  28.9528000000	  56.1707000000	  44.5699000000
S	  31.4249000000	  57.0852000000	  41.3432000000
O	  32.4881000000	  57.4353000000	  42.2341000000
O	  30.9400000000	  58.1030000000	  40.4295000000
C	  32.2540000000	  55.9021000000	  40.1860000000
F	  31.2820000000	  55.3498000000	  39.4548000000
F	  33.0897000000	  56.4927000000	  39.3487000000
F	  32.9116000000	  54.8607000000	  40.7443000000
N	  27.9742000000	  55.1979000000	  35.7759000000
S	  27.7796000000	  56.2849000000	  34.6654000000
O	  28.2802000000	  57.6018000000	  35.0838000000
O	  27.8862000000	  55.7778000000	  33.3179000000
C	  25.9924000000	  56.4829000000	  34.7990000000
F	  25.5843000000	  57.3740000000	  33.9697000000
F	  25.6112000000	  56.8495000000	  36.0258000000
F	  25.4066000000	  55.3268000000	  34.4448000000
S	  29.1405000000	  55.2219000000	  36.7932000000
O	  28.6874000000	  55.0580000000	  38.1565000000
O	  30.2458000000	  56.1478000000	  36.5764000000
C	  30.0078000000	  53.5734000000	  36.5719000000
F	  31.0672000000	  53.4174000000	  37.3371000000
F	  29.1722000000	  52.5968000000	  36.7527000000
F	  30.4710000000	  53.4253000000	  35.2991000000
N	  24.9642000000	  51.1219000000	  38.0388000000
S	  26.1169000000	  50.1899000000	  38.6440000000
O	  27.5081000000	  50.6676000000	  38.6796000000
O	  25.6392000000	  49.5488000000	  39.8524000000
C	  26.0720000000	  48.7778000000	  37.4801000000
F	  26.7590000000	  47.7253000000	  37.8612000000
F	  26.4758000000	  49.1896000000	  36.2754000000
F	  24.8369000000	  48.4124000000	  37.3750000000
S	  25.2006000000	  52.4726000000	  37.1987000000
O	  25.4198000000	  52.1720000000	  35.7609000000
O	  26.1983000000	  53.3400000000	  37.8623000000
C	  23.6798000000	  53.3863000000	  37.2613000000
F	  23.2802000000	  53.5992000000	  38.4880000000
F	  23.6937000000	  54.4861000000	  36.5497000000
F	  22.7977000000	  52.5854000000	  36.7296000000
N	  25.8013000000	  52.5668000000	  43.1891000000
S	  25.5676000000	  51.2644000000	  43.9486000000
O	  25.6311000000	  51.3506000000	  45.3896000000
O	  24.6787000000	  50.2327000000	  43.4879000000
C	  27.1918000000	  50.5217000000	  43.5642000000
F	  27.4645000000	  50.5243000000	  42.2281000000
F	  27.3125000000	  49.2570000000	  43.9849000000
F	  28.1683000000	  51.2208000000	  44.1938000000
S	  25.2194000000	  52.8620000000	  41.7538000000
O	  24.3499000000	  51.8652000000	  41.1973000000
O	  26.2320000000	  53.3503000000	  40.7715000000
C	  24.1207000000	  54.2973000000	  42.0857000000
F	  23.1759000000	  54.2746000000	  41.1365000000
F	  23.4543000000	  54.2897000000	  43.2362000000
F	  24.7411000000	  55.3872000000	  41.9709000000
