54

Li	  27.2195000000	   2.1094400000	  36.1898000000
N	  26.9459000000	   2.0058500000	  40.6857000000
S	  27.1275000000	   0.9859230000	  41.9005000000
O	  26.8919000000	  -0.4095180859	  41.5684000000
O	  28.2320000000	   1.2419700000	  42.8228000000
C	  25.6708000000	   1.3210300000	  42.9614000000
F	  24.5306000000	   0.8986819141	  42.4175000000
F	  25.5552000000	   2.6277400000	  43.1567000000
F	  25.7744000000	   0.6584819141	  44.0845000000
S	  28.0701000000	   2.5084600000	  39.7493000000
O	  27.6723000000	   2.8102000000	  38.4121000000
O	  29.3960000000	   2.0570900000	  40.0284000000
C	  28.1718000000	   4.2118000000	  40.4579000000
F	  28.6901000000	   5.1065000000	  39.6166000000
F	  26.9662000000	   4.6870500000	  40.7401000000
F	  28.8396000000	   4.3835400000	  41.5553000000
N	  31.6402000000	   1.6424100000	  35.0476000000
S	  31.5178000000	   0.7817819141	  33.7067000000
O	  30.2293000000	   0.3960819141	  33.3311000000
O	  32.4830000000	   1.2500100000	  32.7518000000
C	  32.3497000000	  -0.7754180859	  34.2098000000
F	  33.5531000000	  -0.4849180859	  34.5070000000
F	  32.3378000000	  -1.5991180859	  33.2047000000
F	  31.7368000000	  -1.3756180859	  35.2866000000
S	  30.5945000000	   2.0787900000	  36.0834000000
O	  30.8485000000	   1.7373200000	  37.4126000000
O	  29.2480000000	   2.0365200000	  35.5786000000
C	  30.8523000000	   3.8577000000	  36.1158000000
F	  30.1281000000	   4.4554700000	  36.9933000000
F	  32.1269000000	   4.1563300000	  36.4188000000
F	  30.6784000000	   4.4543500000	  34.9688000000
N	  26.5459000000	  -1.4438180859	  35.4098000000
S	  26.2477000000	  -0.4744180859	  34.2010000000
O	  26.0685000000	   0.9177819141	  34.4807000000
O	  26.9721000000	  -0.7806180859	  33.0058000000
C	  24.5590000000	  -0.9450180859	  33.8471000000
F	  23.8593000000	  -0.6934180859	  34.8576000000
F	  24.4462000000	  -2.1801180859	  33.4814000000
F	  24.1138000000	  -0.1715180859	  32.8956000000
S	  27.1058000000	  -1.0254180859	  36.8114000000
O	  26.5669000000	  -1.8171180859	  37.9069000000
O	  27.0532000000	   0.4012819141	  36.9376000000
C	  28.8223000000	  -1.4510180859	  36.5907000000
F	  29.1624000000	  -1.3802180859	  35.3664000000
F	  29.5817000000	  -0.5878180859	  37.2094000000
F	  29.1312000000	  -2.6939180859	  37.0033000000
S	  26.9552000000	   0.1314819141	  26.8852000000
S	  26.9958000000	   2.2963400000	  26.9739000000
S	  28.1878000000	   3.2606200000	  28.3972000000
S	  28.2454000000	   3.3680700000	  33.0777000000
S	  27.5129000000	   4.8164400000	  34.3611000000
S	  26.4789000000	   3.9752700000	  35.9887000000
S	  26.8342000000	   2.9194100000	  31.5838000000
S	  26.9350000000	   4.1293100000	  29.8549000000
