64

Li	  35.3300000000	  37.6354000000	  12.3464000000
O	  39.1599000000	  38.5898000000	  10.9250000000
O	  37.0239000000	  38.2034000000	  11.7139000000
C	  38.6418000000	  39.8382000000	  11.2924000000
C	  37.2617000000	  39.5856000000	  11.8471000000
C	  38.0659000000	  37.7521000000	  10.8820000000
H	  39.3648000000	  40.3342000000	  11.9645000000
H	  38.5244000000	  40.4561000000	  10.3939000000
H	  37.2469000000	  39.6059000000	  12.9769000000
H	  36.4597000000	  40.2177000000	  11.5264000000
H	  37.5887000000	  37.7609000000	   9.9044100000
H	  38.3594000000	  36.7230000000	  11.1706000000
O	  35.1509000000	  39.3441000000	  16.3497000000
O	  34.9956000000	  38.7862000000	  14.1823000000
C	  33.8689000000	  38.8122000000	  16.1642000000
C	  34.0409000000	  38.0893000000	  14.9040000000
C	  35.8632000000	  39.2906000000	  15.1620000000
H	  33.6362000000	  38.0952000000	  16.9449000000
H	  33.2199000000	  39.6919000000	  16.1208000000
H	  34.3898000000	  37.0819000000	  15.0346000000
H	  33.0322000000	  37.9092000000	  14.5015000000
H	  36.1923000000	  40.2768000000	  14.8285000000
H	  36.6795000000	  38.6066000000	  15.3914000000
O	  36.0092000000	  36.2252000000	  13.1864000000
O	  37.0838000000	  34.3103000000	  12.9154000000
C	  37.1120000000	  36.3294000000	  14.1282000000
C	  37.9355000000	  35.0890000000	  13.8333000000
C	  35.8318000000	  34.8573000000	  13.1166000000
H	  37.7713000000	  37.2259000000	  14.0064000000
H	  36.8354000000	  36.3498000000	  15.1827000000
H	  38.9344000000	  35.3168000000	  13.2974000000
H	  38.1111000000	  34.5845000000	  14.7254000000
H	  35.2917000000	  34.5134000000	  13.9708000000
H	  35.2504000000	  34.6835000000	  12.1942000000
N	  31.9261000000	  40.0104000000	  12.5608000000
S	  32.8325000000	  39.7028000000	  11.3417000000
O	  34.0476000000	  38.9868000000	  11.6749000000
O	  32.0932000000	  39.4839000000	  10.1280000000
C	  33.5823000000	  41.4165000000	  11.0623000000
F	  32.7135000000	  42.3380000000	  10.6606000000
F	  34.6259000000	  41.4457000000	  10.1717000000
F	  34.0503000000	  41.7966000000	  12.2402000000
S	  30.3217000000	  40.1627000000	  12.6449000000
O	  29.5673000000	  39.2753000000	  11.8219000000
O	  29.8705000000	  41.5094000000	  12.6646000000
C	  29.8949000000	  39.5990000000	  14.3526000000
F	  30.6097000000	  40.2722000000	  15.3094000000
F	  28.5627000000	  39.6731000000	  14.6377000000
F	  30.2179000000	  38.3218000000	  14.4556000000
N	  33.0537000000	  35.6218000000	   9.8832800000
S	  34.4686000000	  35.9623000000	   9.3633900000
O	  35.3928000000	  36.6168000000	  10.3000000000
O	  35.0648000000	  34.8176000000	   8.6658100000
C	  34.2753000000	  37.2080000000	   8.1238200000
F	  33.3906000000	  36.9336000000	   7.1317400000
F	  35.4640000000	  37.2982000000	   7.5260700000
F	  34.0434000000	  38.3868000000	   8.6198300000
S	  32.4387000000	  36.0951000000	  11.2800000000
O	  31.2650000000	  36.8844000000	  11.0510000000
O	  33.3508000000	  36.4503000000	  12.2551000000
C	  31.6913000000	  34.5910000000	  11.8266000000
F	  32.4871000000	  33.5366000000	  11.5715000000
F	  31.4104000000	  34.5574000000	  13.1511000000
F	  30.5125000000	  34.4187000000	  11.2409000000
