28

Li	  40.2914000000	  10.6049000000	  54.6777000000
O	  41.3588000000	   9.3999500000	  53.6616000000
O	  43.2432000000	   8.4520600000	  53.9803000000
C	  41.1919000000	   8.2341400000	  52.9034000000
C	  42.5399000000	   7.5758300000	  53.0865000000
C	  42.6598000000	   9.6547200000	  53.6768000000
H	  40.2730000000	   7.7674200000	  53.3190000000
H	  41.0368000000	   8.5104200000	  51.9063000000
H	  42.4621000000	   6.5568900000	  53.4486000000
H	  43.0594000000	   7.6205700000	  52.1029000000
H	  43.0222000000	  10.1491000000	  52.7650000000
H	  42.8722000000	  10.3253000000	  54.5339000000
S	  31.2510000000	  10.0705000000	  54.0915000000
S	  32.2410000000	  11.3021000000	  55.5465000000
S	  33.0918000000	  13.0099000000	  54.8569000000
S	  37.0659000000	  11.7276000000	  57.4856000000
S	  39.0837000000	  11.2675000000	  57.0261000000
S	  39.2607000000	   9.4009500000	  56.1022000000
S	  36.2764000000	  13.2601000000	  56.2265000000
S	  35.1716000000	  12.6334000000	  54.6069000000
S	  40.6913000000	  12.4370000000	  53.8371000000
S	  40.4132000000	  12.9179000000	  51.6655000000
S	  41.5087000000	  11.6555000000	  50.4866000000
S	  45.6836000000	   9.9347200000	  51.6531000000
S	  46.1918000000	   7.8919000000	  51.7510000000
S	  46.7540000000	   7.5179800000	  53.7473000000
S	  44.6270000000	  10.5393000000	  49.8617000000
S	  43.5083000000	  12.3202000000	  50.0452000000
