42

Li	  51.0863000000	  58.4938000000	  43.4582000000
O	  52.8474000000	  59.7556780859	  44.3160000000
O	  53.7196000000	  59.1371680859	  46.3211000000
C	  52.5804000000	  60.8403880859	  45.2090000000
C	  53.2058000000	  60.4532380859	  46.5563000000
C	  53.9725000000	  59.1827480859	  44.9080000000
H	  53.0792000000	  61.6162480859	  44.6968000000
H	  51.4871000000	  61.1089580859	  45.1712000000
H	  54.0683000000	  61.0564980859	  46.7244000000
H	  52.5168000000	  60.5382280859	  47.4267000000
H	  54.1508000000	  58.2277000000	  44.3782000000
H	  54.8615000000	  59.7697880859	  44.7051000000
O	  50.3685000000	  55.8214000000	  46.3653000000
O	  51.1325000000	  57.3103000000	  44.8414000000
C	  51.3985000000	  55.1730000000	  45.6156000000
C	  51.6104000000	  56.0520000000	  44.3699000000
C	  50.8292000000	  57.0810000000	  46.2350000000
H	  52.2364000000	  55.0687000000	  46.2759000000
H	  51.0355000000	  54.2094000000	  45.4494000000
H	  52.6239000000	  55.9826000000	  44.0641000000
H	  51.0671000000	  55.7432000000	  43.4681000000
H	  49.9579000000	  57.7929000000	  46.5660000000
H	  51.6711000000	  57.1884000000	  46.8665000000
O	  53.5867000000	  56.8393000000	  40.0834000000
O	  51.9754000000	  57.3695000000	  41.6818000000
C	  52.5156000000	  55.8944000000	  39.9835000000
C	  51.3410000000	  56.5213000000	  40.7354000000
C	  53.1259000000	  57.8459000000	  40.9609000000
H	  52.3234000000	  55.7622000000	  38.9028000000
H	  52.8036000000	  54.9598000000	  40.4308000000
H	  50.7857000000	  57.1981000000	  40.1272000000
H	  50.5851000000	  55.7834000000	  41.1198000000
H	  53.8456000000	  58.2758000000	  41.6521000000
H	  52.8306000000	  58.6633000000	  40.2840000000
S	  46.5174000000	  56.6484000000	  50.3075000000
S	  48.0633000000	  57.6549000000	  49.3054000000
S	  48.0297000000	  59.7305580859	  49.7671000000
S	  48.4086000000	  61.5361380859	  45.0078000000
S	  49.0601000000	  59.7374680859	  44.0772000000
S	  50.0194000000	  59.9559380859	  42.2312000000
S	  48.8201000000	  61.8130280859	  47.0767000000
S	  47.2044000000	  61.0162080859	  48.2773000000
