43

Li	  16.6277000000	  17.3437000000	  51.7713000000
O	  13.6560000000	  15.0517000000	  52.8944000000
O	  15.6906000000	  15.9602000000	  52.5825000000
C	  13.9879000000	  14.8467000000	  51.5613000000
C	  15.3721000000	  15.2885000000	  51.3499000000
C	  14.8411000000	  15.3609000000	  53.5145000000
H	  13.8436000000	  13.8051000000	  51.4111000000
H	  13.2814000000	  15.2287000000	  50.8907000000
H	  15.9922000000	  14.4350000000	  51.1368000000
H	  15.4323000000	  15.9416000000	  50.4605000000
H	  14.7519000000	  16.0771000000	  54.3445000000
H	  15.4549000000	  14.5602000000	  53.9647000000
N	  20.6397000000	  15.4047000000	  51.1767000000
S	  19.2243000000	  15.0450000000	  51.7702000000
O	  19.1861000000	  14.8527000000	  53.1901000000
O	  18.1958000000	  15.8784000000	  51.1572000000
C	  19.0266000000	  13.3455000000	  51.0709000000
F	  17.9334000000	  12.8313000000	  51.6178000000
F	  20.0772000000	  12.5400000000	  51.2996000000
F	  18.8263000000	  13.4101000000	  49.7833000000
S	  21.9117000000	  15.6207000000	  52.0237000000
O	  22.1880000000	  14.7812000000	  53.1596000000
O	  22.2769000000	  17.0086000000	  52.0165000000
C	  23.1452000000	  15.0168000000	  50.8084000000
F	  22.8946000000	  13.7640000000	  50.4092000000
F	  23.2392000000	  15.8781000000	  49.7795000000
F	  24.3015000000	  15.0061000000	  51.4495000000
S	  24.9321000000	  23.4468000000	  55.1578000000
S	  23.8306000000	  24.8748000000	  53.9384000000
S	  21.8412000000	  24.9821000000	  54.4716000000
S	  20.0519000000	  20.5029000000	  54.6206000000
S	  19.2443000000	  19.2903000000	  53.0802000000
S	  17.9503000000	  17.7960000000	  53.7306000000
S	  19.2947000000	  22.4764000000	  54.4932000000
S	  20.5259000000	  23.7600000000	  53.3046000000
S	   9.6486800000	  24.7187000000	  56.2610000000
S	  11.2248000000	  24.4036000000	  54.9819000000
S	  11.5212000000	  22.3948000000	  54.6793000000
S	  14.6711000000	  19.2129000000	  52.8331000000
S	  14.8192000000	  18.7136000000	  50.7736000000
S	  16.8115000000	  18.5967000000	  50.2072000000
S	  14.5723000000	  21.2781000000	  53.2149000000
S	  13.4634000000	  21.7283000000	  54.9851000000
