68

Li	  26.4482000000	  57.9844000000	  41.1445000000
O	  25.6107000000	  59.8458280859	  41.4733000000
O	  25.7298000000	  62.0091180859	  41.9613000000
C	  24.4764000000	  60.0433380859	  42.2248000000
C	  24.6588000000	  61.5105880859	  42.6810000000
C	  26.0980000000	  61.0647680859	  40.9956000000
H	  23.6970000000	  59.9648980859	  41.5016000000
H	  24.2046000000	  59.3209280859	  42.9685000000
H	  23.7702000000	  62.1835580859	  42.5941000000
H	  24.9753000000	  61.4663780859	  43.7715000000
H	  27.1644000000	  61.0158580859	  40.9047000000
H	  25.6017000000	  61.3643180859	  40.0588000000
O	  27.3605000000	  55.9530000000	  44.4073000000
O	  26.7314000000	  57.5961000000	  43.0559000000
C	  28.4821000000	  56.7961000000	  44.2573000000
C	  27.8580000000	  58.0919000000	  43.7265000000
C	  26.3201000000	  56.6103000000	  43.9672000000
H	  29.0145000000	  56.9841000000	  45.1621000000
H	  29.1000000000	  56.2833000000	  43.5516000000
H	  27.6096000000	  58.8184000000	  44.4298000000
H	  28.4816000000	  58.5589000000	  42.9477000000
H	  25.6850000000	  55.9598000000	  43.4262000000
H	  25.8320000000	  57.0818000000	  44.8739000000
N	  27.4415000000	  54.1960000000	  36.9056000000
S	  26.3062000000	  53.2099000000	  36.3316000000
O	  25.0993000000	  53.7146000000	  35.7453000000
O	  27.0013000000	  52.1286000000	  35.6661000000
C	  25.6838000000	  52.4247000000	  37.8809000000
F	  26.5837000000	  51.7966000000	  38.5653000000
F	  24.7401000000	  51.5387000000	  37.6881000000
F	  25.1668000000	  53.3270000000	  38.7067000000
S	  27.1280000000	  55.5743000000	  37.4970000000
O	  25.7049000000	  55.7485000000	  37.6839000000
O	  27.9398000000	  56.5812000000	  36.8376000000
C	  27.8342000000	  55.3208000000	  39.1785000000
F	  27.3593000000	  54.2387000000	  39.8443000000
F	  29.1665000000	  55.1366000000	  39.1467000000
F	  27.6652000000	  56.4082000000	  39.9500000000
N	  29.8062000000	  60.6172880859	  39.4493000000
S	  29.3487000000	  59.1163480859	  39.6696000000
O	  28.2826000000	  58.8860000000	  40.6527000000
O	  29.2860000000	  58.3281000000	  38.5155000000
C	  30.8415000000	  58.4305000000	  40.4055000000
F	  30.6403000000	  57.1993000000	  40.9305000000
F	  31.2531000000	  59.1408580859	  41.3910000000
F	  31.9366000000	  58.2317000000	  39.6129000000
S	  29.9623000000	  61.4538480859	  38.1309000000
O	  29.4473000000	  62.8002980859	  38.2531000000
O	  29.7212000000	  60.7017480859	  36.9045000000
C	  31.7507000000	  61.7106980859	  38.1555000000
F	  32.1445000000	  62.4059380859	  37.0933000000
F	  32.1669000000	  62.3552080859	  39.2587000000
F	  32.4519000000	  60.6439580859	  38.1441000000
N	  23.0156000000	  55.7330000000	  39.7320000000
S	  23.7252000000	  55.7838000000	  41.1050000000
O	  23.8920000000	  54.5126000000	  41.7962000000
O	  24.8751000000	  56.6672000000	  41.1406000000
C	  22.4888000000	  56.5847000000	  42.1324000000
F	  21.3196000000	  55.9438000000	  42.1614000000
F	  22.2423000000	  57.8723000000	  41.8674000000
F	  22.8705000000	  56.6503000000	  43.3491000000
S	  22.3536000000	  54.5862000000	  38.8996000000
O	  22.1192000000	  53.2958000000	  39.5477000000
O	  22.9035000000	  54.4546000000	  37.5550000000
C	  20.7183000000	  55.2944000000	  38.5970000000
F	  20.0179000000	  54.4287000000	  37.8704000000
F	  20.0275000000	  55.4039000000	  39.6877000000
F	  20.7775000000	  56.4505000000	  37.9634000000
