42

Li	  15.1388000000	  33.3933000000	  18.5119000000
O	  16.5464000000	  32.2434000000	  18.1782000000
O	  18.5038000000	  31.2625000000	  18.6671000000
C	  16.2320000000	  31.1494000000	  19.0420000000
C	  17.4449000000	  30.3624000000	  18.9943000000
C	  17.8979000000	  32.2050000000	  17.8697000000
H	  16.0422000000	  31.5475000000	  20.0914000000
H	  15.4825000000	  30.5865000000	  18.5606000000
H	  17.5934000000	  29.9004000000	  19.9420000000
H	  17.4627000000	  29.5015000000	  18.3259000000
H	  17.9842000000	  31.8693000000	  16.8615000000
H	  18.3238000000	  33.2485000000	  17.7566000000
N	  15.1808000000	  32.8318000000	  14.7284000000
S	  14.8877000000	  31.6385000000	  15.7001000000
O	  15.9430000000	  30.5773000000	  15.6760000000
O	  14.2870000000	  32.1545000000	  16.8987000000
C	  13.4716000000	  31.0421000000	  14.7643000000
F	  12.3757000000	  31.7990000000	  14.8604000000
F	  13.0881000000	  29.8740000000	  15.2446000000
F	  13.7902000000	  30.8964000000	  13.4964000000
S	  15.7766000000	  34.1917000000	  15.2567000000
O	  17.1021000000	  34.4873000000	  14.6808000000
O	  15.6972000000	  34.4040000000	  16.7065000000
C	  14.5253000000	  35.4243000000	  14.4749000000
F	  13.3108000000	  35.2003000000	  14.8568000000
F	  14.7797000000	  36.6891000000	  14.7913000000
F	  14.5904000000	  35.2572000000	  13.2000000000
N	  13.4679000000	  35.5141000000	  20.6094000000
S	  14.4659000000	  34.5198000000	  21.3037000000
O	  13.8280000000	  33.9694000000	  22.4767000000
O	  15.2010000000	  33.6796000000	  20.4020000000
C	  15.7380000000	  35.6400000000	  22.0707000000
F	  16.0082000000	  36.6083000000	  21.2217000000
F	  16.8712000000	  35.0184000000	  22.3434000000
F	  15.3378000000	  36.2123000000	  23.1896000000
S	  13.3677000000	  35.8554000000	  19.0852000000
O	  13.5338000000	  34.6801000000	  18.2671000000
O	  14.0206000000	  37.0767000000	  18.7326000000
C	  11.5786000000	  36.2943000000	  18.9192000000
F	  11.3401000000	  36.5795000000	  17.6309000000
F	  10.7998000000	  35.2663000000	  19.2081000000
F	  11.1921000000	  37.3374000000	  19.6989000000
