32

Li	  18.3643000000	  20.6762000000	  51.9183000000
N	  19.7489000000	  17.1156000000	  51.3765000000
S	  18.3379000000	  16.9238000000	  52.0213000000
O	  18.4607000000	  16.3311000000	  53.3496000000
O	  17.2791000000	  17.8963000000	  51.7803000000
C	  17.8057000000	  15.4033000000	  51.0871000000
F	  16.6202000000	  14.9171000000	  51.3316000000
F	  18.6160000000	  14.4585000000	  51.3324000000
F	  17.9069000000	  15.6240000000	  49.7987000000
S	  20.3617000000	  18.4415000000	  50.7797000000
O	  21.6428000000	  18.7954000000	  51.2496000000
O	  19.4218000000	  19.5209000000	  50.7019000000
C	  20.6589000000	  17.9467000000	  49.0489000000
F	  21.1978000000	  16.7029000000	  48.9768000000
F	  19.5572000000	  17.8437000000	  48.4305000000
F	  21.4251000000	  18.7362000000	  48.3430000000
S	  27.2612000000	  22.8290000000	  49.7416000000
S	  25.8937000000	  23.5708000000	  48.3991000000
S	  23.9932000000	  22.9504000000	  48.6825000000
S	  20.2965000000	  22.7717000000	  51.4910000000
S	  19.8474000000	  22.4083000000	  53.5009000000
S	  19.4831000000	  20.3972000000	  53.7114000000
S	  22.0076000000	  24.0203000000	  51.3670000000
S	  22.6235000000	  24.4681000000	  49.3780000000
S	   9.9582600000	  21.5609000000	  59.3553179041
S	  11.6366000000	  20.2920000000	  59.4403779041
S	  12.8191000000	  20.6385000000	  57.8180000000
S	  14.5501000000	  19.6394000000	  53.6654000000
S	  15.8009000000	  21.3293000000	  53.0903000000
S	  16.4060000000	  21.3404000000	  51.1459000000
S	  12.5836000000	  19.9756000000	  54.3513000000
S	  12.5382000000	  19.2072000000	  56.2548000000
