65

Li	  30.5129000000	   4.9578600000	  52.2455000000
O	  28.7626000000	   5.4229600000	  51.7916000000
O	  27.3626000000	   5.5864700000	  50.0945000000
C	  28.5783000000	   6.8226200000	  51.5074000000
C	  28.0555000000	   6.8863400000	  50.1127000000
C	  28.2243000000	   4.7299200000	  50.7414000000
H	  27.7840000000	   7.1496700000	  52.1452000000
H	  29.5012000000	   7.3780000000	  51.5947000000
H	  27.3083000000	   7.6934100000	  50.1018000000
H	  28.7216000000	   6.9917500000	  49.2577000000
H	  29.0560000000	   4.5572200000	  50.0139000000
H	  27.6794000000	   3.8004800000	  51.0292000000
N	  28.8418000000	   7.0599000000	  54.8375000000
S	  28.6687000000	   5.5378700000	  55.2742000000
O	  29.4183000000	   4.5983500000	  54.4278000000
O	  28.8949000000	   5.3811900000	  56.6856000000
C	  26.9195000000	   5.1379900000	  55.0383000000
F	  26.1370000000	   6.1531200000	  55.3495000000
F	  26.4729000000	   4.0971500000	  55.8045000000
F	  26.6119000000	   4.8042500000	  53.8124000000
S	  28.7745000000	   8.2703300000	  55.7585000000
O	  30.0161000000	   8.9484800000	  56.0387000000
O	  27.8854000000	   8.0407900000	  56.8598000000
C	  27.9856000000	   9.5525800000	  54.6710000000
F	  26.7089000000	   9.3999300000	  54.4825000000
F	  28.0996000000	  10.7210000000	  55.2749000000
F	  28.5550000000	   9.6131400000	  53.4376000000
N	  32.7505000000	   5.1932000000	  55.8881000000
S	  32.3146000000	   3.6713500000	  55.9823000000
O	  31.0533000000	   3.5015500000	  56.6696000000
O	  32.6210000000	   2.9733400000	  54.7293000000
C	  33.6602000000	   3.0723400000	  57.1819000000
F	  33.7823000000	   3.9133800000	  58.1722000000
F	  34.8476000000	   2.9073400000	  56.6405000000
F	  33.3225000000	   1.9081900000	  57.7921000000
S	  32.6044000000	   6.2006300000	  54.6642000000
O	  32.2898000000	   7.5748500000	  55.0201000000
O	  31.9887000000	   5.5916000000	  53.5121000000
C	  34.3801000000	   6.2173600000	  54.1407000000
F	  34.6980000000	   4.9583700000	  53.8567000000
F	  34.5708000000	   6.9491500000	  53.0783000000
F	  35.0849000000	   6.5925400000	  55.1727000000
N	  31.2536000000	   6.5046500000	  48.1359000000
S	  31.9725000000	   6.6396000000	  49.5244000000
O	  32.3177000000	   8.0165200000	  49.8191000000
O	  31.4017000000	   5.8035200000	  50.5610000000
C	  33.6435000000	   5.8241400000	  49.2330000000
F	  33.4001000000	   4.7007600000	  48.6523000000
F	  34.3209000000	   5.5720000000	  50.3328000000
F	  34.5190000000	   6.5391200000	  48.5587000000
S	  31.0550000000	   7.6354800000	  47.0356000000
O	  31.5501000000	   8.9373500000	  47.5541000000
O	  29.7072000000	   7.5792100000	  46.5012000000
C	  32.2585000000	   7.0768000000	  45.7342000000
F	  33.5112000000	   6.9065500000	  46.2045000000
F	  31.8712000000	   5.8897000000	  45.3475000000
F	  32.2749000000	   7.8823000000	  44.6673000000
S	  30.9027000000	   2.7252800000	  52.1428000000
S	  30.6364000000	   1.4680500000	  50.3469000000
S	  28.8767000000	   0.4052819141	  50.7988000000
S	  24.7070000000	   2.4718600000	  52.2206000000
S	  22.7570000000	   2.7250600000	  51.4661000000
S	  21.1496000000	   1.9662900000	  52.5397000000
S	  25.5918000000	   0.7063819141	  51.5704000000
S	  27.0878000000	   1.1654800000	  50.1163000000
