61

Li	  44.4275000000	  27.0109000000	   2.2015300000
N	  44.8165000000	  23.8390000000	   5.0391700000
S	  43.5670000000	  24.6264000000	   5.6061400000
O	  43.9254000000	  25.6466000000	   6.6094800000
O	  42.5634000000	  25.0479000000	   4.6236900000
C	  42.7656000000	  23.2559000000	   6.4561300000
F	  42.5058000000	  22.2699000000	   5.5753600000
F	  41.6031000000	  23.4712000000	   7.0618900000
F	  43.5893000000	  22.7771000000	   7.3278200000
S	  45.6024000000	  24.0817000000	   3.6547500000
O	  45.3083000000	  25.2758000000	   2.9943700000
O	  45.6822000000	  22.8691000000	   2.9119500000
C	  47.3593000000	  24.2851000000	   4.2349800000
F	  47.8404000000	  23.1715000000	   4.8353300000
F	  48.2366000000	  24.4826000000	   3.2079700000
F	  47.5370000000	  25.3244000000	   5.0563200000
N	  45.2312000000	  29.9283000000	   5.0322600000
S	  44.0617000000	  29.8764000000	   3.9284000000
O	  44.0384000000	  30.9961000000	   3.0465300000
O	  43.9105000000	  28.6280000000	   3.2176800000
C	  42.6848000000	  30.1227000000	   5.0719400000
F	  41.4910000000	  30.3205000000	   4.4671500000
F	  42.9012000000	  31.2097000000	   5.8016600000
F	  42.5265000000	  29.0895000000	   5.9195800000
S	  46.0772000000	  28.6360000000	   5.4009300000
O	  46.4562000000	  27.9230000000	   4.1903700000
O	  45.5747000000	  27.9381000000	   6.5827900000
C	  47.5515000000	  29.3919000000	   6.0578500000
F	  48.4543000000	  28.4583000000	   6.3619200000
F	  48.0477000000	  30.1809000000	   5.1197800000
F	  47.3502000000	  30.0809000000	   7.2053000000
N	  46.5875000000	  29.5056000000	  -0.7375679041
S	  46.9148000000	  28.6134000000	   0.5026320959
O	  47.5914000000	  29.2745000000	   1.5828400000
O	  45.8072000000	  27.7275000000	   0.7993320959
C	  48.1789000000	  27.5304000000	  -0.1887679041
F	  47.8135000000	  26.9446000000	  -1.2954679041
F	  48.5767000000	  26.5681000000	   0.6085320959
F	  49.1846000000	  28.3230000000	  -0.4692679041
S	  46.1524000000	  31.0011000000	  -0.6056679041
O	  45.5301000000	  31.3353000000	   0.6219320959
O	  45.4514000000	  31.3845000000	  -1.8219679041
C	  47.7418000000	  31.8482000000	  -0.5865679041
F	  48.1776000000	  32.0601000000	  -1.8189679041
F	  47.5683000000	  33.0130000000	  -0.0759679041
F	  48.6839000000	  31.2412000000	   0.1384320959
N	  40.2466000000	  26.5089000000	   0.7113320959
S	  38.7995000000	  26.0274000000	   1.1182900000
O	  38.3784000000	  26.4306000000	   2.4308900000
O	  37.8339000000	  26.2685000000	   0.0565320959
C	  38.9756000000	  24.1816000000	   1.1360700000
F	  39.4276000000	  23.5840000000	   0.0113320959
F	  37.8520000000	  23.5538000000	   1.3458100000
F	  39.7690000000	  23.8417000000	   2.0916300000
S	  41.2251000000	  27.4156000000	   1.6363000000
O	  42.3712000000	  26.7164000000	   2.0977900000
O	  40.4996000000	  28.0369000000	   2.6830100000
C	  41.8605000000	  28.6653000000	   0.3933320959
F	  40.9930000000	  29.6118000000	   0.0241320959
F	  42.8508000000	  29.3534000000	   0.9547320959
F	  42.3854000000	  28.1814000000	  -0.6717679041
