43

Li	  53.3436000000	  32.7672000000	   5.9222700000
O	  52.3361000000	  31.2973000000	   7.0912900000
O	  51.2569000000	  29.2881000000	   6.9108900000
C	  53.1894000000	  30.2410000000	   7.5784900000
C	  52.3240000000	  29.1024000000	   7.8676500000
C	  51.0819000000	  30.6343000000	   6.8133900000
H	  53.9034000000	  29.9736000000	   6.9032900000
H	  53.7565000000	  30.6044000000	   8.4934900000
H	  52.7631000000	  28.0778000000	   7.8090400000
H	  52.0802000000	  29.1936000000	   8.9468000000
H	  50.3052000000	  30.9176000000	   7.5637800000
H	  50.7008000000	  30.9133000000	   5.8745800000
N	  49.7319000000	  35.9117000000	   6.0515200000
S	  50.3503000000	  36.9708000000	   7.0140700000
O	  49.5215000000	  37.5473000000	   8.0115100000
O	  51.6790000000	  36.6214000000	   7.4133000000
C	  50.7327000000	  38.3562000000	   5.9324400000
F	  49.6524000000	  38.9511000000	   5.4119400000
F	  51.4669000000	  37.9740000000	   4.9027300000
F	  51.4287000000	  39.2653000000	   6.5386500000
S	  50.1143000000	  34.3453000000	   5.8298200000
O	  49.1373000000	  33.3990000000	   6.2938200000
O	  51.5299000000	  34.0613000000	   6.1210100000
C	  50.1060000000	  34.1640000000	   3.9635300000
F	  50.4901000000	  32.9568000000	   3.6248100000
F	  48.9343000000	  34.3980000000	   3.4034300000
F	  50.8669000000	  35.0403000000	   3.4237000000
S	  53.6844000000	  32.9615000000	   3.7757300000
S	  54.6863000000	  31.1431000000	   4.1312100000
S	  56.2679000000	  31.2302000000	   5.5086800000
S	  61.0979479041	  31.2400000000	   4.7315300000
S	  61.1585279041	  33.2639000000	   5.1158000000
S	  62.7782079041	  33.8005000000	   6.4839000000
S	  59.3065279041	  30.7965000000	   3.6998700000
S	  57.7849000000	  29.9992000000	   4.8520300000
S	  53.3640000000	  38.8948000000	  14.0877000000
S	  54.8125000000	  38.9844000000	  12.5757000000
S	  54.2213000000	  40.3565000000	  11.0008000000
S	  55.9616000000	  36.9212000000	   8.1208500000
S	  55.1715000000	  35.8164000000	   6.5753400000
S	  54.3995000000	  33.9759000000	   7.3812600000
S	  55.1969000000	  38.8481000000	   8.0931500000
S	  53.5919000000	  39.2516000000	   9.4085600000
