47

Li	  31.6989000000	  47.8184000000	  53.1912000000
N	  28.4608000000	  50.1889000000	  54.9873000000
S	  29.8052000000	  49.5309000000	  55.2806000000
O	  30.3387000000	  48.5712000000	  54.3473000000
O	  30.7005000000	  50.4936000000	  55.9758000000
C	  29.2592000000	  48.3463000000	  56.6783000000
F	  28.9062000000	  48.9985000000	  57.7798000000
F	  30.2084000000	  47.4210000000	  56.9891000000
F	  28.1478000000	  47.6130000000	  56.3429000000
S	  27.6647000000	  50.2872000000	  53.6278000000
O	  28.4524000000	  50.2260000000	  52.4442000000
O	  26.5458000000	  51.1811000000	  53.7471000000
C	  26.8264000000	  48.6631000000	  53.6208000000
F	  25.8183000000	  48.5000000000	  52.7576000000
F	  27.6295000000	  47.6327000000	  53.4156000000
F	  26.1593000000	  48.3786000000	  54.7931000000
N	  35.3472000000	  48.9180000000	  54.5900000000
S	  33.8471000000	  49.1334000000	  54.9694000000
O	  33.2854000000	  50.4410000000	  54.8605000000
O	  32.9850000000	  48.0524000000	  54.5164000000
C	  33.9445000000	  48.9061000000	  56.7896000000
F	  34.0600000000	  47.5896000000	  57.0458000000
F	  32.9220000000	  49.3721000000	  57.4341000000
F	  35.0013000000	  49.4798000000	  57.3928000000
S	  36.2881000000	  49.8159000000	  53.7966000000
O	  35.8395000000	  51.1258000000	  53.5202000000
O	  36.8805000000	  49.1209000000	  52.7070000000
C	  37.5892000000	  50.0839000000	  54.9225000000
F	  38.5502000000	  50.8513000000	  54.3885000000
F	  37.1233000000	  50.7769000000	  55.9187000000
F	  38.0444000000	  48.9125000000	  55.3674000000
S	  30.9914000000	  45.9833000000	  52.4409000000
S	  32.1401000000	  44.8359000000	  53.7488000000
S	  31.2981000000	  44.9502000000	  55.6721000000
S	  30.9598000000	  40.7898000000	  59.2566979041
S	  30.3168000000	  38.8416000000	  59.1997579041
S	  30.8679000000	  37.8414000000	  61.0227879041
S	  30.2696000000	  41.9980000000	  57.6021000000
S	  31.8090000000	  43.3204000000	  56.8585000000
S	  31.4057000000	  49.1458000000	  51.5005000000
S	  33.5252000000	  48.8691000000	  51.0146000000
S	  34.4594000000	  50.5548000000	  50.2059000000
S	  37.4751000000	  48.0956000000	  47.2635000000
S	  38.1372000000	  46.8304000000	  48.8226000000
S	  40.2741000000	  46.6884000000	  48.8267000000
S	  37.0215000000	  50.0379000000	  47.9206000000
S	  34.9530000000	  50.4249000000	  48.1448000000
