32

Li	  17.5315000000	  18.0316000000	  53.8307000000
N	  18.1068000000	  14.4871000000	  53.9658000000
S	  18.0016000000	  15.1805000000	  55.3976000000
O	  18.9829000000	  14.8750000000	  56.3897000000
O	  17.7618000000	  16.6045000000	  55.2599000000
C	  16.4160000000	  14.4529000000	  55.9263000000
F	  16.0833000000	  14.8010000000	  57.1800000000
F	  16.4576000000	  13.1275000000	  55.9704000000
F	  15.4508000000	  14.8660000000	  55.1078000000
S	  17.9559000000	  15.1180000000	  52.5323000000
O	  19.1480000000	  15.0755000000	  51.7326000000
O	  17.2230000000	  16.3625000000	  52.5546000000
C	  16.7547000000	  13.8776000000	  51.8203000000
F	  17.0546000000	  12.6561000000	  52.0871000000
F	  15.5629000000	  14.1736000000	  52.2749000000
F	  16.6332000000	  13.9467000000	  50.4905000000
S	  26.6061000000	  18.9291000000	  48.6378000000
S	  25.7613000000	  16.9987000000	  48.5468000000
S	  24.2796000000	  16.6961000000	  49.9766000000
S	  19.7225000000	  18.4130000000	  51.2439000000
S	  20.1547000000	  18.0950000000	  53.2854000000
S	  19.0128000000	  19.3825000000	  54.4848000000
S	  21.3964000000	  18.9349000000	  50.0205000000
S	  22.3685000000	  17.2017000000	  49.1531000000
S	  10.1898000000	  17.9149000000	  60.7944779041
S	  10.8486000000	  19.8010000000	  60.4555079041
S	  12.0092000000	  20.0847000000	  58.7412000000
S	  15.9726000000	  19.0410000000	  56.4063000000
S	  15.1008000000	  18.2326000000	  54.6138000000
S	  16.0202000000	  19.2105000000	  52.9222000000
S	  15.1027000000	  20.7585000000	  57.1843000000
S	  14.0051000000	  20.6757000000	  58.9566000000
