46

Li	  33.6185000000	   2.6538300000	  30.4008000000
O	  32.2033000000	   4.1917900000	  29.8166000000
O	  32.1653000000	   2.4346900000	  28.6478000000
C	  30.8741000000	   3.8444200000	  30.0134000000
C	  30.7904000000	   2.7024500000	  29.0124000000
C	  32.6211000000	   3.6679900000	  28.5699000000
H	  30.6132000000	   3.5498700000	  31.0388000000
H	  30.2673000000	   4.6065600000	  29.6002000000
H	  30.3215000000	   1.8569800000	  29.4130000000
H	  30.2541000000	   3.0336100000	  28.0740000000
H	  32.2067000000	   4.1115600000	  27.6992000000
H	  33.7114000000	   3.7153000000	  28.4469000000
O	  36.8512000000	   3.8490600000	  32.8734000000
O	  35.0599000000	   3.7583100000	  31.5276000000
C	  36.0662000000	   4.9892500000	  33.0246000000
C	  35.2765000000	   5.0785100000	  31.7919000000
C	  36.1630000000	   3.0074000000	  32.0886000000
H	  35.4892000000	   4.7738700000	  33.9224000000
H	  36.6264000000	   5.8981700000	  33.2546000000
H	  34.4350000000	   5.7133100000	  31.8873000000
H	  35.9726000000	   5.6192700000	  31.0859000000
H	  36.8128000000	   2.6360600000	  31.3776000000
H	  35.7243000000	   2.2194300000	  32.6258000000
N	  32.3814000000	   2.6514500000	  34.5613000000
S	  32.1457000000	   1.8177800000	  33.2657000000
O	  30.7590000000	   1.3424200000	  33.1467000000
O	  32.7933000000	   2.4183600000	  32.1151000000
C	  33.1503000000	   0.3328819141	  33.6848000000
F	  34.4298000000	   0.7024819141	  33.8758000000
F	  33.1190000000	  -0.6305180859	  32.8161000000
F	  32.7285000000	  -0.2011180859	  34.8956000000
S	  31.3805000000	   3.6614900000	  35.2580000000
O	  31.6855000000	   3.7294800000	  36.6455000000
O	  30.0243000000	   3.5653400000	  34.7881000000
C	  31.8478000000	   5.2520400000	  34.5729000000
F	  31.1777000000	   6.2547400000	  35.0825000000
F	  33.1226000000	   5.5828900000	  34.7844000000
F	  31.6218000000	   5.3231200000	  33.2615000000
S	  34.4657000000	   0.7097819141	  29.9201000000
S	  36.2700000000	   0.9846540000	  28.8645000000
S	  36.2282000000	   2.5243400000	  27.4866000000
S	  35.2156000000	   6.7218400000	  26.1068000000
S	  35.2273000000	   8.8202200000	  26.1900000000
S	  33.3358000000	   9.5807700000	  26.7858000000
S	  37.0630000000	   5.8001300000	  26.8057000000
S	  36.6644000000	   4.3881800000	  28.3337000000
