35

Li	  34.2362000000	  18.7958000000	  11.9308000000
O	  36.9615000000	  17.9749000000	  14.2216000000
O	  34.8240000000	  17.8613000000	  13.4559000000
C	  36.8486000000	  16.8199000000	  13.4253000000
C	  35.3575000000	  16.5612000000	  13.4505000000
C	  35.7026000000	  18.5104000000	  14.3601000000
H	  37.2498000000	  17.0455000000	  12.4191000000
H	  37.4309000000	  16.0166000000	  13.9117000000
H	  35.0354000000	  16.0589000000	  12.4968000000
H	  35.0947000000	  15.9481000000	  14.3707000000
H	  35.3486000000	  18.3020000000	  15.3719000000
H	  35.6656000000	  19.5918000000	  14.2950000000
N	  35.8025000000	  18.7895000000	   8.6751900000
S	  34.5327000000	  17.9760000000	   8.8738000000
O	  33.9959000000	  18.0367000000	  10.1847000000
O	  33.6171000000	  18.1007000000	   7.7602300000
C	  35.1513000000	  16.2522000000	   8.6982900000
F	  34.4093000000	  15.5045000000	   7.9670600000
F	  35.2489000000	  15.6255000000	   9.8041500000
F	  36.3563000000	  16.2792000000	   8.1278800000
S	  36.4550000000	  19.6827000000	   9.7727100000
O	  36.0015000000	  19.4597000000	  11.1486000000
O	  36.6095000000	  21.0657000000	   9.5361100000
C	  38.2648000000	  19.0857000000	   9.8299000000
F	  38.9950000000	  19.6758000000	   8.9150000000
F	  38.8388000000	  19.3525000000	  11.0003000000
F	  38.4026000000	  17.7592000000	   9.6498200000
S	  32.9217000000	  20.1697000000	  12.8703000000
S	  33.5058000000	  21.6582000000	  14.2544000000
S	  33.3261000000	  20.8754000000	  16.2162000000
S	  33.3503000000	  25.4486000000	  17.2704000000
S	  31.7716000000	  26.1436000000	  15.9704000000
S	  30.2361000000	  27.0961000000	  17.0629000000
S	  33.1888000000	  23.6218000000	  18.1904000000
S	  34.4091000000	  22.2063000000	  17.4726000000
