39

Li	   9.2898400000	  19.8714000000	  54.4287000000
N	   8.3488600000	  23.3571000000	  52.4738000000
S	   9.3060000000	  22.1479000000	  51.9516000000
O	  10.6165000000	  22.5762000000	  51.5857000000
O	   9.2320600000	  20.9622000000	  52.7795000000
C	   8.3748800000	  21.8098000000	  50.4089000000
F	   8.8365700000	  20.7038000000	  49.8732000000
F	   8.5694100000	  22.7798000000	  49.5516000000
F	   7.0586600000	  21.6192000000	  50.5011000000
S	   7.8529400000	  23.6370000000	  53.9757000000
O	   7.8381000000	  25.0375000000	  54.3195000000
O	   8.2658000000	  22.8010000000	  55.0740000000
C	   6.0829900000	  23.2508000000	  53.8049000000
F	   5.5442500000	  24.0148000000	  52.8645000000
F	   5.8790900000	  22.0336000000	  53.4259000000
F	   5.4069700000	  23.3992000000	  54.9384000000
N	  11.2524000000	  22.3525000000	  57.4353000000
S	  11.5749000000	  21.6410000000	  56.0972000000
O	  10.4624000000	  21.0453000000	  55.3531000000
O	  12.6268000000	  22.3142000000	  55.3672000000
C	  12.4122000000	  20.1813000000	  56.7018000000
F	  13.5358000000	  20.5081000000	  57.3357000000
F	  12.8057000000	  19.5240000000	  55.6272000000
F	  11.7769000000	  19.3480000000	  57.4877000000
S	   9.8616200000	  22.5969000000	  58.1976000000
O	   8.9747900000	  21.4666000000	  58.0647000000
O	   9.3216900000	  23.8999000000	  58.0239000000
C	  10.2676000000	  22.5335000000	  60.0070879041
F	  10.8579000000	  21.4478000000	  60.3327979041
F	  11.0609000000	  23.5507000000	  60.3985479041
F	   9.2776100000	  22.6303000000	  60.7668179041
S	   7.9597100000	  19.2649000000	  55.7847000000
S	   9.3103600000	  17.7605000000	  54.9266000000
S	   9.5382000000	  18.0389000000	  52.8732000000
S	  12.6357000000	  15.9914000000	  49.3817000000
S	  14.7612000000	  16.1305000000	  49.0758000000
S	  15.3694000000	  18.1256000000	  48.9289000000
S	  12.1131000000	  15.8861000000	  51.4553000000
S	  10.0275000000	  16.2423000000	  51.9055000000
