35

Li	  30.5551000000	  44.3186000000	  52.3167000000
O	  29.9706000000	  44.7270000000	  48.6790000000
O	  30.9353000000	  45.1248000000	  50.6269000000
C	  29.7401000000	  46.1236000000	  48.9510000000
C	  30.7918000000	  46.4017000000	  49.9873000000
C	  30.9643000000	  44.2420000000	  49.5892000000
H	  29.5453000000	  46.7161000000	  48.0249000000
H	  28.7842000000	  46.2494000000	  49.4653000000
H	  31.7061000000	  46.7526000000	  49.5791000000
H	  30.3833000000	  47.0878000000	  50.6982000000
H	  30.6647000000	  43.2702000000	  49.9278000000
H	  31.9622000000	  44.2673000000	  49.0932000000
N	  27.8066000000	  41.9011000000	  51.5464000000
S	  27.6236000000	  43.2101000000	  50.7978000000
O	  28.1808000000	  44.3290000000	  51.4804000000
O	  27.9396000000	  43.0407000000	  49.3797000000
C	  25.8149000000	  43.5221000000	  50.8239000000
F	  25.1249000000	  42.6396000000	  50.1422000000
F	  25.4201000000	  44.6903000000	  50.2893000000
F	  25.3670000000	  43.5428000000	  52.0992000000
S	  28.7350000000	  41.6844000000	  52.7574000000
O	  27.9995000000	  41.5998000000	  53.9973000000
O	  29.8869000000	  42.5448000000	  52.7475000000
C	  29.3359000000	  39.9999000000	  52.4665000000
F	  28.3904000000	  39.0854000000	  52.6321000000
F	  29.7883000000	  39.8121000000	  51.2254000000
F	  30.3626000000	  39.7320000000	  53.2351000000
S	  30.2605000000	  45.6611000000	  53.8453000000
S	  31.7311000000	  44.3405000000	  54.5267000000
S	  33.0034000000	  43.6729000000	  53.0030000000
S	  37.2074000000	  44.7266000000	  50.3081000000
S	  38.9838000000	  43.8178000000	  49.6761000000
S	  38.6033000000	  42.7208000000	  47.8709000000
S	  36.4011000000	  43.8801000000	  52.0059000000
S	  34.7610000000	  44.9207000000	  52.8292000000
