45

Li	  16.0295000000	  36.0681000000	   9.4055200000
O	  17.3792000000	  35.4558000000	  10.5500000000
O	  17.7310000000	  34.6088000000	  12.6795000000
C	  17.9818000000	  36.5202000000	  11.2660000000
C	  18.1551000000	  36.0035000000	  12.7127000000
C	  17.7144000000	  34.2576000000	  11.3147000000
H	  18.9772000000	  36.5839000000	  10.6711000000
H	  17.4494000000	  37.4544000000	  11.2097000000
H	  19.2232000000	  36.0708000000	  13.0094000000
H	  17.5782000000	  36.5117000000	  13.5185000000
H	  16.9904000000	  33.4251000000	  11.0385000000
H	  18.7136000000	  33.9163000000	  10.9971000000
O	  17.0278000000	  38.6141000000	   6.4220100000
O	  16.4491000000	  37.6843000000	   8.3883600000
C	  17.8484000000	  39.2378000000	   7.3787400000
C	  17.2174000000	  38.8663000000	   8.7535700000
C	  15.9730000000	  38.0378000000	   7.1243700000
H	  18.8024000000	  38.7292000000	   7.2478600000
H	  17.9605000000	  40.2488000000	   7.2046000000
H	  18.0650000000	  38.8024000000	   9.4700800000
H	  16.5313000000	  39.6273000000	   9.1303400000
H	  15.2766000000	  38.8413000000	   7.2428300000
H	  15.4448000000	  37.2390000000	   6.6201400000
O	  13.6753000000	  32.7141000000	   8.6050600000
O	  14.9785000000	  34.5227000000	   8.3823800000
C	  14.4562000000	  32.5979000000	   7.3888500000
C	  14.8331000000	  33.9669000000	   7.0893600000
C	  13.8900000000	  34.0004000000	   9.0912000000
H	  15.4660000000	  32.1272000000	   7.5218800000
H	  13.8584000000	  32.0580000000	   6.6122100000
H	  15.6350000000	  34.0433000000	   6.4032700000
H	  14.0858000000	  34.6219000000	   6.6025400000
H	  13.0460000000	  34.5887000000	   8.8285400000
H	  14.1121000000	  33.9914000000	  10.1987000000
O	  14.6470000000	  38.7570000000	  11.4799000000
O	  14.3611000000	  36.7880000000	  10.5254000000
C	  14.6608000000	  37.9036000000	  12.6510000000
C	  14.4886000000	  36.5151000000	  11.9441000000
C	  13.8965000000	  38.1072000000	  10.5174000000
H	  15.6468000000	  38.2148000000	  13.1268000000
H	  13.8444000000	  38.2002000000	  13.3406000000
H	  15.3067000000	  35.8850000000	  12.2180000000
H	  13.6578000000	  35.9513000000	  12.2314000000
H	  12.8136000000	  38.2300000000	  10.6350000000
H	  14.0586000000	  38.4166000000	   9.5141000000
