54

Li	  27.2645000000	   2.2290800000	  35.1120000000
N	  24.5917000000	   2.7585100000	  38.6657000000
S	  23.6241000000	   1.7030600000	  39.2877000000
O	  23.4563000000	   0.6254819141	  38.3451000000
O	  23.9450000000	   1.3958000000	  40.6340000000
C	  21.9463000000	   2.4785700000	  39.3517000000
F	  21.1714000000	   1.9038600000	  40.2944000000
F	  21.3354000000	   2.3962600000	  38.1659000000
F	  21.9050000000	   3.7843900000	  39.5845000000
S	  26.1193000000	   2.5995300000	  38.3678000000
O	  26.3737000000	   2.3527300000	  37.0019000000
O	  26.7908000000	   1.7750200000	  39.3330000000
C	  26.6657000000	   4.3231600000	  38.6149000000
F	  26.1884000000	   5.1595900000	  37.6700000000
F	  26.2459000000	   4.8418500000	  39.7954000000
F	  28.0166000000	   4.4576300000	  38.5184000000
N	  30.6652000000	  -0.4246180859	  35.8642000000
S	  30.5507000000	  -0.9075180859	  34.4134000000
O	  29.3911000000	  -0.4686180859	  33.6322000000
O	  31.8197000000	  -0.8407180859	  33.7490000000
C	  30.4155000000	  -2.6878180859	  34.6083000000
F	  29.4207000000	  -3.1028180859	  35.4193000000
F	  31.5031000000	  -3.1130180859	  35.2336000000
F	  30.2479000000	  -3.2963180859	  33.4013000000
S	  29.8369000000	   0.7297819141	  36.6369000000
O	  29.3563000000	   0.2381819141	  37.8758000000
O	  29.0158000000	   1.6524900000	  35.8934000000
C	  31.1954000000	   1.7986700000	  37.2052000000
F	  31.9660000000	   1.2386000000	  38.1919000000
F	  31.9858000000	   2.3107200000	  36.2954000000
F	  30.6461000000	   2.8584900000	  37.7759000000
N	  24.3281000000	  -0.2575180859	  33.2207000000
S	  24.2040000000	   0.8193819141	  32.0733000000
O	  24.5540000000	   2.0921500000	  32.4752000000
O	  24.6441000000	   0.2383819141	  30.7694000000
C	  22.3356000000	   0.8886819141	  32.0135000000
F	  21.7235000000	   1.2721300000	  33.0926000000
F	  21.9860000000	  -0.3459180859	  31.6829000000
F	  21.9628000000	   1.6861600000	  30.9765000000
S	  25.2695000000	  -0.1291180859	  34.5037000000
O	  24.5027000000	  -0.0199180859	  35.7347000000
O	  26.2903000000	   0.8101819141	  34.2506000000
C	  26.1472000000	  -1.7207180859	  34.5137000000
F	  26.7564000000	  -1.9116180859	  35.6467000000
F	  25.2417000000	  -2.6955180859	  34.3435000000
F	  27.0503000000	  -1.8291180859	  33.6584000000
S	  28.4097000000	   0.8903819141	  23.4881000000
S	  28.3196000000	   0.8226819141	  25.6389000000
S	  28.4624000000	   2.7530100000	  26.4053000000
S	  27.9438000000	   2.2190100000	  31.6844000000
S	  28.0229000000	   3.9411500000	  32.9675000000
S	  26.4234000000	   3.9238000000	  34.3446000000
S	  27.2791000000	   2.5367100000	  29.7336000000
S	  28.9106000000	   2.7323800000	  28.4753000000
