31

Li	  34.4320000000	  39.1486000000	   1.4523800000
O	  36.1139000000	  40.3878000000	  -2.0773679041
O	  35.3940000000	  39.4625000000	  -0.2006679041
C	  36.6840000000	  39.0707000000	  -2.0002679041
C	  35.6229000000	  38.5039000000	  -1.2118679041
C	  35.6343000000	  40.6667000000	  -0.8590679041
H	  36.8137000000	  38.5265000000	  -2.9373679041
H	  37.6499000000	  39.0385000000	  -1.4844679041
H	  34.7861000000	  38.2173000000	  -1.7858679041
H	  36.0202000000	  37.6514000000	  -0.7734679041
H	  36.3603000000	  41.2314000000	  -0.2416679041
H	  34.6765000000	  41.2031000000	  -0.7832679041
O	  34.9554000000	  40.7825000000	   2.3433500000
O	  35.3638000000	  40.2341000000	   4.4624800000
C	  36.3750000000	  40.9560000000	   2.4909000000
C	  36.5378000000	  40.6947000000	   3.9797900000
C	  34.4828000000	  40.8864000000	   3.6814400000
H	  36.9877000000	  40.1178000000	   1.9809700000
H	  36.6957000000	  41.9993000000	   2.0911800000
H	  37.2428000000	  39.9271000000	   4.1879200000
H	  36.7773000000	  41.6115000000	   4.5193700000
H	  34.4880000000	  41.9595000000	   3.6485500000
H	  33.4923000000	  40.4752000000	   3.7385400000
S	  29.9914000000	  45.5584000000	  -2.1201679041
S	  31.5551000000	  44.5601000000	  -3.2397679041
S	  32.8479000000	  43.3342000000	  -2.2032679041
S	  32.3628000000	  39.8648000000	   0.7763320959
S	  32.6138000000	  37.8642000000	   0.8623320959
S	  34.0219000000	  37.3184000000	   2.3925600000
S	  31.0739000000	  40.6197000000	  -0.7427679041
S	  32.3808000000	  41.3156000000	  -2.3359679041
