32

Li	  18.3279000000	  17.6510000000	  53.1196000000
N	  19.5136000000	  14.0303000000	  52.2795000000
S	  19.4199000000	  14.7337000000	  53.6692000000
O	  20.7278000000	  14.9044000000	  54.2892000000
O	  18.4974000000	  15.8400000000	  53.6776000000
C	  18.5979000000	  13.4141000000	  54.6586000000
F	  18.5266000000	  13.7804000000	  55.9609000000
F	  19.3249000000	  12.2929000000	  54.5386000000
F	  17.3571000000	  13.1736000000	  54.2347000000
S	  20.6536000000	  13.1568000000	  51.7286000000
O	  20.2993000000	  11.7825000000	  51.8761000000
O	  22.0056000000	  13.6131000000	  52.0988000000
C	  20.4730000000	  13.4581000000	  49.9526000000
F	  20.3312000000	  14.7173000000	  49.6622000000
F	  21.5083000000	  13.0351000000	  49.2422000000
F	  19.3677000000	  12.8798000000	  49.5336000000
S	  28.2975000000	  19.2909000000	  48.5755000000
S	  26.8307000000	  17.8473000000	  48.7506000000
S	  24.8503000000	  18.5859000000	  48.8920000000
S	  20.6523000000	  17.6597000000	  51.0288000000
S	  20.9258000000	  19.2949000000	  52.4876000000
S	  19.6723000000	  19.0611000000	  54.2624000000
S	  22.4668000000	  16.7092000000	  50.6489000000
S	  23.4208000000	  17.0267000000	  48.7395000000
S	  13.0852000000	  15.0066000000	  59.6262079041
S	  14.9873000000	  14.0188000000	  59.4793479041
S	  16.6069000000	  15.2916000000	  59.1247679041
S	  15.1265000000	  17.3906000000	  54.5366000000
S	  16.2684000000	  18.6347000000	  53.0854000000
S	  16.6810000000	  17.6117000000	  51.2930000000
S	  15.9228000000	  17.5040000000	  56.4872000000
S	  16.9522000000	  15.7932000000	  57.0861000000
