42

Li	  37.0984000000	  18.5273000000	  48.7848000000
O	  33.4104000000	  19.2250000000	  48.5526000000
O	  35.3056000000	  18.1307000000	  48.4579000000
C	  33.3315000000	  18.5898000000	  47.3262000000
C	  34.7701000000	  18.0018000000	  47.1954000000
C	  34.3349000000	  18.5462000000	  49.3000000000
H	  32.5039000000	  17.8895000000	  47.3587000000
H	  33.1087000000	  19.2531000000	  46.4642000000
H	  34.8458000000	  16.9102000000	  47.0291000000
H	  35.2791000000	  18.5771000000	  46.3941000000
H	  34.7524000000	  19.1380000000	  50.0778000000
H	  33.7860000000	  17.6787000000	  49.8188000000
O	  37.7345000000	  19.5904000000	  47.1865000000
O	  37.1847000000	  19.7822000000	  45.0385000000
C	  37.4798000000	  20.9444000000	  46.9481000000
C	  37.5277000000	  21.0943000000	  45.3927000000
C	  37.8987000000	  19.0158000000	  45.8867000000
H	  36.5570000000	  21.3894000000	  47.3442000000
H	  38.3314000000	  21.5044000000	  47.3232000000
H	  36.8315000000	  21.8048000000	  44.9872000000
H	  38.4555000000	  21.2825000000	  44.9397000000
H	  38.9101000000	  19.0414000000	  45.6346000000
H	  37.6200000000	  18.0415000000	  45.7078000000
O	  37.8840000000	  21.2628000000	  51.5530000000
O	  37.3972000000	  19.7051000000	  50.0928000000
C	  38.9358000000	  20.3426000000	  51.6760000000
C	  38.7629000000	  19.6087000000	  50.3794000000
C	  36.8243000000	  20.5914000000	  50.9541000000
H	  39.9532000000	  20.7230000000	  51.6598000000
H	  38.8418000000	  19.8140000000	  52.6145000000
H	  39.3777000000	  20.1259000000	  49.5945000000
H	  39.0359000000	  18.6069000000	  50.4403000000
H	  36.3066000000	  20.1164000000	  51.7498000000
H	  36.0711000000	  21.3229000000	  50.5961000000
S	  30.3274000000	  10.8030000000	  46.3328000000
S	  31.1928000000	  11.5487000000	  48.0619000000
S	  33.2730000000	  11.8636000000	  48.1018000000
S	  36.1700000000	  14.4618000000	  50.4177000000
S	  37.2907000000	  16.2625000000	  50.1712000000
S	  38.0950000000	  16.4015000000	  48.1752000000
S	  34.1102000000	  14.6426000000	  50.0636000000
S	  33.7188000000	  13.9140000000	  48.0614000000
