28

Li	  21.1008000000	   4.3500800000	  48.0449000000
O	  19.8687000000	   1.8029300000	  50.8954000000
O	  20.4062000000	   3.5410700000	  49.4616000000
C	  21.2311000000	   1.9382800000	  50.7907000000
C	  21.4196000000	   3.3765500000	  50.4120000000
C	  19.4620000000	   2.5886800000	  49.8243000000
H	  21.7476000000	   1.8403500000	  51.7426000000
H	  21.6087000000	   1.1806200000	  50.1038000000
H	  21.3815000000	   4.0813800000	  51.2682000000
H	  22.3308000000	   3.5498700000	  49.9163000000
H	  19.2348000000	   1.9022100000	  49.0018000000
H	  18.5013000000	   3.0286700000	  50.0733000000
S	  21.7868000000	   3.2249000000	  46.3657000000
S	  19.9534000000	   3.6010200000	  45.2906000000
S	  18.2219000000	   3.4047900000	  46.4935000000
S	  15.4483000000	   6.1373500000	  44.0476000000
S	  14.0258000000	   7.6626800000	  43.7827000000
S	  14.4667000000	   9.8070000000	  43.9660000000
S	  15.2666000000	   5.1277400000	  45.9466000000
S	  17.1305000000	   5.0939300000	  46.8616000000
S	  29.9577000000	   3.1331000000	  49.5653000000
S	  28.2418000000	   2.3746200000	  48.5991000000
S	  27.9257000000	   3.1580700000	  46.6278000000
S	  24.1778000000	   6.3669300000	  47.8480000000
S	  22.3965000000	   7.1097000000	  47.0585000000
S	  20.5847000000	   6.2682600000	  47.9755000000
S	  25.5564000000	   5.7942800000	  46.2930000000
S	  25.8986000000	   3.7844000000	  46.4633000000
