20

Li	  38.8830000000	   2.1638300000	  21.3779000000
O	  40.2028000000	   1.4238600000	  20.3231000000
O	  41.8476000000	   0.3528819141	  19.3075000000
C	  40.9544000000	   0.6763819141	  21.2239000000
C	  41.3921000000	  -0.4311180859	  20.3317000000
C	  40.7516000000	   1.2080300000	  19.1064000000
H	  41.6783000000	   1.2576800000	  21.7286000000
H	  40.2566000000	   0.2638819141	  21.9187000000
H	  42.1462000000	  -1.0472180859	  20.7871000000
H	  40.5347000000	  -1.0481180859	  20.0113000000
H	  39.9063000000	   0.8359819141	  18.4814000000
H	  40.9698000000	   2.2480000000	  18.7834000000
S	  38.0821000000	   3.5568400000	  20.0960000000
S	  39.8867000000	   4.6187400000	  20.0860000000
S	  40.2924000000	   5.3717100000	  21.9491000000
S	  38.8525000000	   1.0920600000	  24.1023000000
S	  37.1163000000	   1.1313900000	  22.9103000000
S	  37.4919000000	   0.1853819141	  21.0498000000
S	  39.5244000000	   3.1173300000	  24.5245000000
S	  40.9165000000	   3.8016200000	  23.1504000000
