35

Li	  36.3091000000	  26.5246000000	  56.3335000000
O	  35.6093000000	  24.8139000000	  55.9321000000
O	  35.2377000000	  23.7884000000	  54.0015000000
C	  34.4714000000	  24.0346000000	  56.2045000000
C	  34.0096000000	  23.8600000000	  54.7655000000
C	  36.2808000000	  24.2065000000	  54.9056000000
H	  34.7315000000	  23.1644000000	  56.6513000000
H	  33.7790000000	  24.4538000000	  56.8932000000
H	  33.3945000000	  22.9684000000	  54.4815000000
H	  33.4211000000	  24.6844000000	  54.4586000000
H	  36.9401000000	  24.8469000000	  54.4302000000
H	  36.8229000000	  23.3695000000	  55.2424000000
N	  39.8143000000	  26.2309000000	  58.8920000000
S	  38.2414000000	  26.3880000000	  58.7589000000
O	  37.7466000000	  27.4857000000	  59.4623879041
O	  37.7228000000	  26.0642000000	  57.4466000000
C	  37.8231000000	  24.9265000000	  59.7759879041
F	  38.4948000000	  23.7611000000	  59.5538679041
F	  36.5472000000	  24.6839000000	  59.7125979041
F	  38.0523000000	  25.1682000000	  61.0752779041
S	  40.8133000000	  27.1841000000	  59.6373679041
O	  41.9359000000	  26.5388000000	  60.1987479041
O	  40.2355000000	  28.2530000000	  60.4254379041
C	  41.6549000000	  28.0856000000	  58.3027000000
F	  40.7986000000	  28.8616000000	  57.6776000000
F	  42.5742000000	  28.9612000000	  58.7172000000
F	  42.1903000000	  27.2488000000	  57.4646000000
S	  39.5941000000	  26.8341000000	  45.5775000000
S	  40.2921000000	  26.6379000000	  47.6213000000
S	  39.5345000000	  28.3441000000	  48.5421000000
S	  38.5845000000	  28.4189000000	  53.0360000000
S	  37.9942000000	  27.6220000000	  54.8647000000
S	  36.1514000000	  28.5452000000	  55.5444000000
S	  38.3741000000	  27.0192000000	  51.4628000000
S	  37.9197000000	  27.8389000000	  49.6625000000
