43

Li	  42.9950000000	  49.4455000000	  26.4063000000
O	  44.0340000000	  50.7719000000	  29.8620000000
O	  44.1909000000	  49.5718000000	  27.9373000000
C	  45.4251000000	  50.4837000000	  29.6260000000
C	  45.5071000000	  49.7464000000	  28.3019000000
C	  43.4286000000	  49.7743000000	  29.1273000000
H	  46.0126000000	  51.4272000000	  29.5391000000
H	  45.8660000000	  49.9900000000	  30.4292000000
H	  45.9205000000	  50.3144000000	  27.4000000000
H	  46.0558000000	  48.8025000000	  28.4144000000
H	  43.3368000000	  48.7775000000	  29.5668000000
H	  42.3708000000	  50.0236000000	  29.0315000000
N	  40.8633000000	  45.4890000000	  27.6835000000
S	  41.0083000000	  47.0668000000	  28.1612000000
O	  41.1587000000	  47.2336000000	  29.5628000000
O	  41.9422000000	  47.8245000000	  27.3531000000
C	  39.4136000000	  47.7420000000	  27.7063000000
F	  39.2710000000	  49.0030000000	  28.1464000000
F	  38.4904000000	  47.1029000000	  28.2294000000
F	  39.2026000000	  47.6868000000	  26.3980000000
S	  41.0443000000	  44.2390000000	  28.5193000000
O	  41.0244000000	  44.4440000000	  29.9214000000
O	  41.9844000000	  43.2437000000	  28.0806000000
C	  39.4519000000	  43.4518000000	  28.2259000000
F	  39.1443000000	  43.3375000000	  26.9414000000
F	  39.4268000000	  42.2617000000	  28.7116000000
F	  38.4613000000	  44.2268000000	  28.6923000000
S	  44.6447000000	  48.3858000000	  25.2455000000
S	  43.4424000000	  48.2019000000	  23.5607000000
S	  41.4299000000	  47.9424000000	  23.9975000000
S	  37.4906000000	  44.5780000000	  22.7135000000
S	  35.6850000000	  45.2543000000	  21.9772000000
S	  35.3374000000	  44.8673000000	  19.8985000000
S	  38.5393000000	  46.1786000000	  23.6042000000
S	  40.4587000000	  46.4573000000	  22.9146000000
S	  41.6182000000	  51.0111000000	  26.4732000000
S	  42.7346000000	  51.7400000000	  24.9463000000
S	  41.6890000000	  52.1973000000	  23.2586000000
S	  43.6227000000	  55.5610000000	  20.2112000000
S	  44.4814000000	  54.2110000000	  18.8212000000
S	  43.1346000000	  53.0352000000	  17.7761000000
S	  43.6079000000	  54.9842000000	  22.1787000000
S	  41.6985000000	  54.3140000000	  22.8895000000
