42

Li	  11.8434000000	  37.6372000000	   9.7824700000
O	  10.9996000000	  41.5774000000	   8.3585200000
O	  11.4755000000	  39.3862000000	   8.4506200000
C	  10.5211000000	  41.1110000000	   7.1101200000
C	  10.6559000000	  39.5621000000	   7.2743500000
C	  12.0142000000	  40.6715000000	   8.5940300000
H	   9.4895300000	  41.3328000000	   6.8804600000
H	  11.0194000000	  41.5796000000	   6.2807000000
H	   9.6899200000	  39.0245000000	   7.3075400000
H	  11.1839000000	  39.2760000000	   6.3651700000
H	  12.8485000000	  40.7931000000	   7.8858400000
H	  12.3859000000	  40.8035000000	   9.6278600000
N	  15.3121000000	  37.4785000000	   9.7598700000
S	  14.5698000000	  36.7119000000	   8.5663500000
O	  13.1287000000	  36.8878000000	   8.4513100000
O	  15.2794000000	  36.6339000000	   7.3466400000
C	  14.6200000000	  34.9990000000	   9.1428800000
F	  14.2571000000	  34.1068000000	   8.1886900000
F	  13.8497000000	  34.8402000000	  10.2420000000
F	  15.8742000000	  34.7475000000	   9.4554500000
S	  14.6574000000	  38.4728000000	  10.7667000000
O	  13.2192000000	  38.4550000000	  10.7571000000
O	  15.3291000000	  39.7625000000	  10.6315000000
C	  15.2419000000	  37.7859000000	  12.3415000000
F	  16.5849000000	  37.9144000000	  12.3566000000
F	  14.7511000000	  38.4105000000	  13.3728000000
F	  14.9928000000	  36.4930000000	  12.5165000000
N	   9.8598800000	  34.4044000000	   9.1433500000
S	   9.1626900000	  35.7672000000	   9.3499000000
O	   8.2442700000	  35.7480000000	  10.4733000000
O	  10.0749000000	  36.8175000000	   9.2395800000
C	   8.1211400000	  36.0171000000	   7.9025900000
F	   7.6434300000	  37.2613000000	   7.9293400000
F	   7.0755700000	  35.2193000000	   7.9405200000
F	   8.6508900000	  35.7935000000	   6.6898200000
S	   9.5675800000	  32.9959000000	   9.8144800000
O	   9.4768400000	  31.8907000000	   8.8616600000
O	   8.5598100000	  32.9620000000	  10.8548000000
C	  11.0875000000	  32.5753000000	  10.7794000000
F	  10.9669000000	  31.4908000000	  11.5118000000
F	  12.1339000000	  32.3719000000	  10.0665000000
F	  11.5015000000	  33.4923000000	  11.7088000000
