53

Li	  38.3581000000	  15.4943000000	  42.5640000000
O	  36.9070000000	  17.3092000000	  42.7634000000
O	  34.9372000000	  18.2445000000	  42.8466000000
C	  36.5851000000	  17.3489000000	  44.1125000000
C	  35.5189000000	  18.3848000000	  44.1727000000
C	  36.0657000000	  18.1368000000	  42.1161000000
H	  36.2598000000	  16.4016000000	  44.5721000000
H	  37.4161000000	  17.6246000000	  44.6832000000
H	  34.7381000000	  18.2410000000	  44.9708000000
H	  35.8848000000	  19.3893000000	  44.2675000000
H	  36.5650000000	  19.0851000000	  42.0642000000
H	  35.9399000000	  17.8298000000	  41.0789000000
O	  39.5473000000	  16.9847000000	  41.8506000000
O	  40.6076000000	  18.5323000000	  40.6111000000
C	  40.6946000000	  17.3014000000	  42.5341000000
C	  41.3359000000	  18.4567000000	  41.8196000000
C	  39.3653000000	  18.0995000000	  41.0047000000
H	  40.3730000000	  17.5964000000	  43.5650000000
H	  41.2013000000	  16.3748000000	  42.5709000000
H	  41.1424000000	  19.3927000000	  42.3341000000
H	  42.4724000000	  18.3514000000	  41.6526000000
H	  38.6386000000	  17.7767000000	  40.2303000000
H	  38.7922000000	  18.8505000000	  41.6047000000
N	  35.3735000000	  13.6547000000	  40.8636000000
S	  36.3002000000	  14.3600000000	  39.8104000000
O	  37.1563000000	  15.3634000000	  40.3969000000
O	  36.8608000000	  13.4877000000	  38.8104000000
C	  35.1387000000	  15.3401000000	  38.8381000000
F	  34.5759000000	  16.3024000000	  39.5585000000
F	  34.1668000000	  14.6094000000	  38.2645000000
F	  35.8053000000	  15.9723000000	  37.9225000000
S	  35.5319000000	  13.7260000000	  42.4310000000
O	  36.5395000000	  14.6314000000	  42.9328000000
O	  35.4489000000	  12.3799000000	  42.9757000000
C	  33.9568000000	  14.5654000000	  42.9054000000
F	  32.8779000000	  13.8956000000	  42.5255000000
F	  33.9409000000	  14.7468000000	  44.2202000000
F	  33.8701000000	  15.7468000000	  42.3746000000
N	  39.3849000000	  12.9894000000	  44.2411000000
S	  39.3494000000	  14.3617000000	  45.0122000000
O	  39.1301000000	  15.5371000000	  44.2280000000
O	  38.5809000000	  14.1920000000	  46.2326000000
C	  41.0710000000	  14.4899000000	  45.5365000000
F	  41.3467000000	  13.4948000000	  46.3533000000
F	  41.4083000000	  15.6083000000	  46.0975000000
F	  41.8457000000	  14.3299000000	  44.4695000000
S	  39.1840000000	  12.6928000000	  42.7754000000
O	  39.0579000000	  13.8181000000	  41.9537000000
O	  38.1725000000	  11.6407000000	  42.6257000000
C	  40.7601000000	  11.8211000000	  42.2412000000
F	  40.6561000000	  11.1537000000	  41.0867000000
F	  41.7797000000	  12.5624000000	  42.0438000000
F	  41.1904000000	  10.8579000000	  43.1335000000
