42

Li	  31.5221000000	  50.5143000000	  11.2641000000
O	  32.2424000000	  52.2484000000	  14.3797000000
O	  32.4968000000	  51.5405000000	  12.2530000000
C	  33.5520000000	  51.6568000000	  14.2436000000
C	  33.5075000000	  50.8768000000	  12.9506000000
C	  32.0635000000	  52.6096000000	  13.0457000000
H	  34.2292000000	  52.4335000000	  14.1479000000
H	  33.7984000000	  50.9709000000	  15.0429000000
H	  34.4325000000	  51.0181000000	  12.4143000000
H	  33.3396000000	  49.7790000000	  13.1302000000
H	  31.0393000000	  52.8332000000	  12.9823000000
H	  32.6383000000	  53.5209000000	  12.7554000000
N	  29.2325000000	  51.0683000000	   7.8635600000
S	  30.0917000000	  51.9742000000	   8.7687500000
O	  30.7682000000	  51.2815000000	   9.8141300000
O	  30.7820000000	  52.9886000000	   8.0238300000
C	  28.8878000000	  52.9253000000	   9.7909000000
F	  29.4325000000	  53.7854000000	  10.6331000000
F	  28.1715000000	  52.1463000000	  10.5734000000
F	  28.0504000000	  53.5834000000	   9.0411800000
S	  29.5437000000	  49.6645000000	   7.2469200000
O	  30.9738000000	  49.3071000000	   7.3560800000
O	  28.9365000000	  49.5432000000	   5.9305000000
C	  28.4980000000	  48.6583000000	   8.3830200000
F	  28.0933000000	  47.4514000000	   7.9180200000
F	  29.1011000000	  48.2552000000	   9.5130300000
F	  27.4707000000	  49.3231000000	   8.7283900000
N	  30.5178000000	  48.8170000000	  14.3268000000
S	  31.2710000000	  49.1346000000	  15.6993000000
O	  32.6427000000	  48.7693000000	  15.7451000000
O	  30.9146000000	  50.4127000000	  16.3159000000
C	  30.3907000000	  47.9174000000	  16.8406000000
F	  29.0484000000	  48.0524000000	  16.9020000000
F	  30.7497000000	  48.1226000000	  18.0677000000
F	  30.7158000000	  46.6632000000	  16.5917000000
S	  29.5833000000	  49.8438000000	  13.5198000000
O	  30.0242000000	  50.0066000000	  12.1363000000
O	  29.1933000000	  51.0498000000	  14.1700000000
C	  28.0198000000	  48.8453000000	  13.2582000000
F	  27.3773000000	  48.7074000000	  14.3653000000
F	  27.2064000000	  49.4456000000	  12.4117000000
F	  28.3099000000	  47.6019000000	  12.8427000000
