61

Li	  17.6481000000	  36.1298000000	   4.3636100000
O	  14.1368000000	  37.0831000000	   2.8993300000
O	  15.8312000000	  36.2949000000	   4.0884800000
C	  13.9433000000	  37.5851000000	   4.1677200000
C	  15.3032000000	  37.4284000000	   4.7160000000
C	  15.0573000000	  36.0486000000	   2.9516500000
H	  13.6027000000	  38.6398000000	   4.2131700000
H	  13.2153000000	  37.0295000000	   4.7664500000
H	  15.9400000000	  38.1349000000	   4.3796200000
H	  15.2759000000	  37.3800000000	   5.8372300000
H	  14.6188000000	  35.0464000000	   2.9152000000
H	  15.7621000000	  36.1358000000	   2.1332900000
O	  15.8083000000	  33.3235000000	   4.7716800000
O	  17.8167000000	  34.2277000000	   4.6277400000
C	  16.4457000000	  32.5523000000	   3.7864000000
C	  17.9130000000	  33.1321000000	   3.7318600000
C	  16.8269000000	  33.8272000000	   5.5716200000
H	  16.5697000000	  31.5000000000	   4.1489700000
H	  15.9379000000	  32.5512000000	   2.8247100000
H	  18.7223000000	  32.3910000000	   3.8784400000
H	  18.0999000000	  33.5815000000	   2.7201300000
H	  16.4589000000	  34.6431000000	   6.1725200000
H	  17.2853000000	  33.1784000000	   6.2586700000
N	  18.6968000000	  40.3013000000	   3.1723700000
S	  19.5023000000	  40.4517000000	   4.5473300000
O	  20.1465000000	  39.1797000000	   5.0237000000
O	  20.2914000000	  41.6751000000	   4.5960000000
C	  18.0643000000	  40.7871000000	   5.6168200000
F	  17.0550000000	  40.0699000000	   5.1509200000
F	  17.6058000000	  42.0519000000	   5.4145500000
F	  18.1760000000	  40.5874000000	   6.9722600000
S	  18.3522000000	  39.0566000000	   2.2479900000
O	  17.9621000000	  37.8413000000	   2.9611000000
O	  19.2913000000	  39.0373000000	   1.0833400000
C	  16.8861000000	  39.6328000000	   1.5226500000
F	  15.9499000000	  39.7312000000	   2.4402100000
F	  16.9997000000	  40.8220000000	   0.9801320959
F	  16.4443000000	  38.8584000000	   0.5245320959
N	  21.7416000000	  36.4110000000	   2.1587700000
S	  22.6473000000	  37.6563000000	   2.0277300000
O	  22.2248000000	  38.4868000000	   0.9134320959
O	  22.9827000000	  38.2851000000	   3.2651200000
C	  24.2240000000	  36.8493000000	   1.4489000000
F	  24.1313000000	  36.6316000000	   0.1871320959
F	  24.4575000000	  35.7146000000	   2.0502900000
F	  25.2719000000	  37.6095000000	   1.6376900000
S	  20.9332000000	  35.8615000000	   3.3959300000
O	  19.4903000000	  35.5813000000	   3.0895900000
O	  21.2315000000	  36.4651000000	   4.6934200000
C	  21.6317000000	  34.1347000000	   3.7382300000
F	  21.5652000000	  33.3485000000	   2.6962500000
F	  22.8706000000	  34.2242000000	   3.9834400000
F	  20.9840000000	  33.5079000000	   4.6814500000
S	  18.4019000000	  36.8570000000	   6.1129100000
S	  19.4247000000	  37.2503000000	   7.9552100000
S	  21.3109000000	  36.0503000000	   8.0413300000
S	  21.1362000000	  35.7660000000	  13.2484000000
S	  22.0820000000	  34.6655000000	  14.7510000000
S	  20.6460000000	  34.1453000000	  16.2694000000
S	  22.2707000000	  36.0070000000	  11.4410000000
S	  21.3639000000	  34.9391000000	   9.8318800000
