53

Li	  19.8357000000	  34.0575000000	   6.6687200000
O	  20.5772000000	  32.8089000000	   7.8500300000
O	  20.3749000000	  30.7369000000	   8.7165100000
C	  21.9134000000	  32.3740000000	   7.9950100000
C	  21.7870000000	  30.9261000000	   8.5711400000
C	  19.9001000000	  32.0258000000	   8.8010500000
H	  22.5013000000	  32.5687000000	   7.1107200000
H	  22.4010000000	  33.0214000000	   8.7241500000
H	  22.2060000000	  30.1652000000	   7.9045300000
H	  22.3420000000	  30.8750000000	   9.5376200000
H	  20.0575000000	  32.4748000000	   9.8052300000
H	  18.8313000000	  32.0659000000	   8.4988900000
O	  15.9404000000	  33.4160000000	   5.3123400000
O	  17.8889000000	  33.2344000000	   6.3474900000
C	  16.0912000000	  32.0276000000	   5.5267000000
C	  17.5829000000	  32.0354000000	   5.6045200000
C	  16.7618000000	  34.0161000000	   6.2464600000
H	  15.6307000000	  31.7843000000	   6.4481100000
H	  15.5593000000	  31.5053000000	   4.7761200000
H	  17.8374000000	  31.1152000000	   6.2082800000
H	  18.2283000000	  31.9416000000	   4.7423100000
H	  17.0266000000	  35.0494000000	   5.8435400000
H	  16.2073000000	  34.1654000000	   7.1566100000
N	  18.6630000000	  37.6648000000	   8.5944300000
S	  18.9197000000	  36.1663000000	   9.0652600000
O	  18.9423000000	  35.1345000000	   8.0447700000
O	  19.9003000000	  36.1712000000	  10.1484000000
C	  17.3786000000	  35.9025000000	   9.9766800000
F	  16.3283000000	  36.1079000000	   9.2008500000
F	  17.1871000000	  36.6249000000	  11.0406000000
F	  17.2705000000	  34.6401000000	  10.3570000000
S	  18.7802000000	  38.2121000000	   7.1320400000
O	  18.6966000000	  37.3439000000	   5.9739500000
O	  19.8428000000	  39.1896000000	   7.0763100000
C	  17.2659000000	  39.3050000000	   7.0093000000
F	  17.0382000000	  39.6015000000	   5.7130000000
F	  16.2361000000	  38.6171000000	   7.4258300000
F	  17.3704000000	  40.4730000000	   7.6823400000
N	  21.8730000000	  35.8505000000	   4.1689900000
S	  22.0398000000	  36.4738000000	   5.6146800000
O	  22.2313000000	  37.9172000000	   5.5551900000
O	  21.2500000000	  35.8697000000	   6.6553400000
C	  23.7596000000	  35.9225000000	   6.0890300000
F	  24.2219000000	  36.5621000000	   7.1422200000
F	  24.5978000000	  36.1391000000	   5.0272200000
F	  23.7649000000	  34.6485000000	   6.2690500000
S	  21.0696000000	  34.5393000000	   3.7770800000
O	  20.3114000000	  34.6609000000	   2.5220100000
O	  20.4663000000	  33.7714000000	   4.8516600000
C	  22.5054000000	  33.4580000000	   3.2188000000
F	  22.2110000000	  32.2719000000	   2.7151200000
F	  23.2652000000	  34.0858000000	   2.3711000000
F	  23.2732000000	  33.2788000000	   4.2767600000
