61

Li	  10.3899000000	  21.3700000000	  52.5673000000
O	   8.3785200000	  21.4033000000	  52.4056000000
O	   9.9336100000	  22.2146000000	  54.3165000000
O	  10.2370000000	  19.7527000000	  51.2540000000
O	  12.4668000000	  21.9299000000	  53.3756000000
C	   7.6774500000	  21.7728000000	  53.5606000000
C	   8.6020200000	  22.7201000000	  54.3859000000
C	   8.0172800000	  20.1055000000	  51.9510000000
C	  10.8851000000	  23.1277000000	  54.8451000000
C	   8.9705000000	  19.7452000000	  50.7471000000
C	  12.2605000000	  22.4703000000	  54.6527000000
C	  11.2283000000	  19.5306000000	  50.2580000000
C	  13.7170000000	  21.3070000000	  53.3599000000
H	   6.7970100000	  22.3225000000	  53.2846000000
H	   7.4353200000	  20.9261000000	  54.2144000000
H	   8.4900800000	  23.8016000000	  54.0262000000
H	   8.1528500000	  22.7889000000	  55.3748000000
H	   8.1075200000	  19.3816000000	  52.7536000000
H	   6.9708400000	  20.0854000000	  51.6749000000
H	  10.7400000000	  24.0582000000	  54.2200000000
H	  10.6714000000	  23.3967000000	  55.8135000000
H	   8.6458700000	  18.8279000000	  50.2916000000
H	   8.8757900000	  20.4425000000	  49.8943000000
H	  13.0396000000	  23.2242000000	  54.7003000000
H	  12.4812000000	  21.7612000000	  55.4845000000
H	  10.8647000000	  18.7380000000	  49.5759000000
H	  11.4695000000	  20.4011000000	  49.6476000000
H	  12.1647000000	  19.3340000000	  50.6583000000
H	  14.5665000000	  21.9310000000	  53.4110000000
H	  13.7341000000	  20.6041000000	  54.1717000000
H	  13.8865000000	  20.6152000000	  52.4881000000
N	  12.5080000000	  23.9172000000	  50.5213000000
S	  11.0514000000	  24.0566000000	  50.9842000000
O	  10.4160000000	  22.7473000000	  51.1890000000
O	  10.8083000000	  25.1475000000	  51.9360000000
C	  10.2522000000	  24.6516000000	  49.4298000000
F	  10.4672000000	  23.8531000000	  48.3588000000
F	  10.6109000000	  25.9041000000	  49.1589000000
F	   8.9759700000	  24.7194000000	  49.6668000000
S	  13.6931000000	  24.5067000000	  51.3149000000
O	  14.8801000000	  23.7329000000	  51.2610000000
O	  13.3689000000	  25.1257000000	  52.5946000000
C	  14.1247000000	  25.9410000000	  50.2075000000
F	  15.0215000000	  26.7517000000	  50.6886000000
F	  14.4635000000	  25.5664000000	  48.9764000000
F	  13.0273000000	  26.6638000000	  50.0356000000
N	  11.8534000000	  17.1601000000	  54.0814000000
S	  12.5815000000	  17.0888000000	  52.6709000000
O	  11.6748000000	  16.8857000000	  51.5813000000
O	  13.7017000000	  18.0293000000	  52.4754000000
C	  13.3558000000	  15.4118000000	  52.7948000000
F	  13.9362000000	  15.2424000000	  54.0003000000
F	  14.1759000000	  15.2053000000	  51.7712000000
F	  12.4559000000	  14.4803000000	  52.8216000000
S	  11.3261000000	  18.5183000000	  54.8609000000
O	  10.8979000000	  19.4873000000	  53.8586000000
O	  12.1557000000	  18.9123000000	  56.0038000000
C	   9.7072100000	  17.8764000000	  55.5626000000
F	   9.0552900000	  18.9763000000	  55.9572000000
F	   9.0015800000	  17.1208000000	  54.7278000000
F	   9.8317800000	  17.1734000000	  56.6494000000
