72

Li	   7.9533900000	  13.9344000000	  34.9742000000
O	   9.7002900000	  11.6681000000	  38.2225000000
O	   8.7848900000	  13.0763000000	  36.7057000000
C	  10.6265000000	  12.7103000000	  38.1282000000
C	  10.0414000000	  13.5532000000	  37.0261000000
C	   8.5337700000	  12.1700000000	  37.7471000000
H	  10.7458000000	  13.1216000000	  39.1325000000
H	  11.5746000000	  12.2970000000	  37.8469000000
H	   9.9672400000	  14.5560000000	  37.4038000000
H	  10.6840000000	  13.4978000000	  36.1751000000
H	   7.7480200000	  11.4342000000	  37.4763000000
H	   8.0884400000	  12.6835000000	  38.5884000000
O	   7.5428900000	  15.4402000000	  36.0411000000
O	   5.7857000000	  13.6789000000	  37.4766000000
O	   9.2153800000	  15.0178000000	  34.0195000000
O	   5.4081100000	  10.7632000000	  36.8256000000
C	   6.6224900000	  15.9867000000	  37.0190000000
C	   5.4390900000	  15.0180000000	  37.0826000000
C	   8.6606600000	  16.3703000000	  35.7107000000
C	   4.6106400000	  12.8934000000	  37.5866000000
C	   8.9653300000	  16.3405000000	  34.2630000000
C	   4.9662100000	  11.4435000000	  37.9859000000
C	   9.5651200000	  14.7124000000	  32.6728000000
C	   4.2631900000	  10.2360000000	  36.1373000000
H	   7.1207500000	  16.0472000000	  37.9619000000
H	   6.1658500000	  16.9412000000	  36.7926000000
H	   4.7924900000	  15.3726000000	  37.8770000000
H	   4.7226800000	  14.9677000000	  36.1857000000
H	   8.2301500000	  17.3691000000	  35.8025000000
H	   9.5947600000	  16.4304000000	  36.2909000000
H	   4.1172300000	  13.3094000000	  38.4610000000
H	   3.8528200000	  12.8965000000	  36.8003000000
H	   8.0620400000	  16.6429000000	  33.6627000000
H	   9.8100600000	  16.9763000000	  34.0152000000
H	   5.8056000000	  11.4133000000	  38.6560000000
H	   4.2476800000	  10.9154000000	  38.5646000000
H	  10.0491000000	  13.7536000000	  32.7065000000
H	   8.7174500000	  14.6725000000	  32.0579000000
H	  10.2639000000	  15.4796000000	  32.2545000000
H	   3.5524600000	  11.0545000000	  35.9170000000
H	   4.6298300000	  10.0586000000	  35.1062000000
H	   3.8351100000	   9.4039600000	  36.6453000000
O	  10.6470000000	   9.9281700000	  33.9301000000
O	   8.0985200000	  12.3400000000	  33.6523000000
O	  12.6219000000	  10.8105000000	  31.5734000000
O	   6.3544900000	  14.5253000000	  33.7273000000
C	  10.1554000000	  11.2046000000	  33.8019000000
C	   8.6620900000	  11.1432000000	  34.0190000000
C	  12.0207000000	   9.6339600000	  33.7652000000
C	   6.7346300000	  12.1269000000	  33.3835000000
C	  12.4047000000	   9.5823900000	  32.2642000000
C	   5.9958100000	  13.4152000000	  32.9325000000
C	  13.2472000000	  10.6542000000	  30.1975000000
C	   5.5359300000	  15.6514000000	  33.4590000000
H	  10.6304000000	  11.9692000000	  34.4618000000
H	  10.3990000000	  11.4666000000	  32.7654000000
H	   8.3075800000	  10.3661000000	  33.3582000000
H	   8.4133100000	  10.8410000000	  35.0516000000
H	  12.6669000000	  10.3085000000	  34.4104000000
H	  12.1812000000	   8.6698000000	  34.1975000000
H	   6.5491600000	  11.4539000000	  32.5395000000
H	   6.1211900000	  11.8145000000	  34.2016000000
H	  13.2945000000	   9.0140800000	  32.3396000000
H	  11.6663000000	   8.9188300000	  31.7968000000
H	   6.1159500000	  13.7809000000	  31.9319000000
H	   4.9999600000	  13.2211000000	  33.0832000000
H	  12.5829000000	  10.0108000000	  29.6076000000
H	  13.3413000000	  11.6321000000	  29.6877000000
H	  14.2454000000	  10.2119000000	  30.2833000000
H	   5.7401200000	  16.5002000000	  34.1372000000
H	   5.7801500000	  16.1159000000	  32.4756000000
H	   4.4217500000	  15.5669000000	  33.4275000000
