47

Li	  26.6035000000	  21.6216000000	  51.5559000000
O	  28.4448000000	  20.2162000000	  49.0541000000
O	  28.0109000000	  22.4670000000	  50.5273000000
O	  26.7264000000	  19.0003000000	  47.6020000000
O	  26.8854000000	  23.0432000000	  52.9415000000
C	  29.4189000000	  20.7708000000	  49.9170000000
C	  29.3047000000	  22.2210000000	  50.0438000000
C	  28.4098000000	  18.8721000000	  49.2751000000
C	  27.8135000000	  23.8316000000	  50.9272000000
C	  27.9868000000	  18.2766000000	  47.8822000000
C	  27.9522000000	  23.8534000000	  52.4569000000
C	  26.1132000000	  18.5703000000	  46.3576000000
C	  26.9606000000	  22.8862000000	  54.3167000000
H	  29.2602000000	  20.3429000000	  50.8811000000
H	  30.3132000000	  20.5002000000	  49.4513000000
H	  30.0848000000	  22.4949000000	  50.6032000000
H	  29.4926000000	  22.7184000000	  49.1780000000
H	  29.3861000000	  18.3532000000	  49.5062000000
H	  27.7605000000	  18.6382000000	  50.1355000000
H	  28.5466000000	  24.5690000000	  50.5016000000
H	  26.8893000000	  24.2334000000	  50.5224000000
H	  28.6642000000	  18.4180000000	  47.0706000000
H	  27.8183000000	  17.2071000000	  48.0313000000
H	  28.9660000000	  23.5917000000	  52.8225000000
H	  27.7964000000	  24.9304000000	  52.7152000000
H	  25.8299000000	  17.5125000000	  46.4392000000
H	  25.2539000000	  19.1417000000	  46.1688000000
H	  26.7509000000	  18.7499000000	  45.5368000000
H	  26.1170000000	  22.2965000000	  54.6998000000
H	  27.8800000000	  22.4127000000	  54.5847000000
H	  27.0340000000	  23.8916000000	  54.6554000000
S	  24.1133000000	  17.0589000000	  43.6569000000
S	  23.4232000000	  18.8792000000	  42.9099000000
S	  24.1579000000	  20.6129000000	  43.9597000000
S	  22.6734000000	  22.8866000000	  48.5748000000
S	  24.3688000000	  23.1390000000	  49.6954000000
S	  25.3764000000	  21.2548000000	  49.9514000000
S	  23.1645000000	  22.9180000000	  46.6276000000
S	  22.7880000000	  21.1011000000	  45.6361000000
S	  23.2940000000	  13.8925000000	  60.1225305338
S	  23.4668000000	  14.5187000000	  58.0228000000
S	  21.8658000000	  15.4905000000	  57.1394000000
S	  24.6097000000	  19.5829000000	  55.5376000000
S	  26.3826000000	  19.0134000000	  54.6369000000
S	  26.6614000000	  19.8613000000	  52.8457000000
S	  22.9551000000	  18.3067000000	  55.2181000000
S	  22.0572000000	  17.6041000000	  56.9963000000
