61

Li	  41.4542000000	  37.3645000000	  25.0860000000
O	  39.9848000000	  37.8663000000	  24.2049000000
O	  41.5239000000	  39.2899000000	  25.7448000000
O	  40.6877000000	  35.1601000000	  23.5111000000
O	  42.0868000000	  42.1208000000	  27.2534000000
C	  39.9259000000	  39.2650000000	  23.9594000000
C	  40.2943000000	  39.9217000000	  25.3123000000
C	  39.6339000000	  37.2857000000	  22.9577000000
C	  42.0163000000	  39.7427000000	  27.0080000000
C	  39.4388000000	  35.7743000000	  23.0663000000
C	  42.8663000000	  41.0133000000	  26.8906000000
C	  40.6571000000	  33.8309000000	  23.8554000000
C	  42.8603000000	  43.2860000000	  27.1133000000
H	  40.6778000000	  39.5233000000	  23.1995000000
H	  38.9333000000	  39.5720000000	  23.6040000000
H	  40.4470000000	  41.0182000000	  25.1598000000
H	  39.4406000000	  39.7558000000	  25.9386000000
H	  38.7284000000	  37.7889000000	  22.5934000000
H	  40.4582000000	  37.5192000000	  22.2415000000
H	  41.2521000000	  39.7899000000	  27.8158000000
H	  42.6433000000	  38.8807000000	  27.3380000000
H	  38.5626000000	  35.4470000000	  23.5642000000
H	  39.2450000000	  35.3602000000	  22.0985000000
H	  43.7417000000	  40.8634000000	  27.5307000000
H	  43.1999000000	  41.0291000000	  25.9094000000
H	  39.9282000000	  33.2592000000	  23.2637000000
H	  41.7058000000	  33.3657000000	  23.8677000000
H	  40.2988000000	  33.8856000000	  24.8767000000
H	  43.1883000000	  43.3305000000	  26.0749000000
H	  42.2046000000	  44.1213000000	  27.4697000000
H	  43.7381000000	  43.2629000000	  27.6858000000
O	  39.6256000000	  37.3335000000	  27.9920000000
O	  41.9666000000	  36.4897000000	  26.6700000000
O	  37.5468000000	  38.5103000000	  26.6045000000
O	  42.9439000000	  37.1281000000	  24.1411000000
C	  40.7689000000	  36.9430000000	  28.7745000000
C	  41.5051000000	  35.9311000000	  27.8957000000
C	  38.5966000000	  38.1760000000	  28.6328000000
C	  43.0328000000	  35.7855000000	  26.0956000000
C	  37.2596000000	  37.9569000000	  27.8708000000
C	  43.7480000000	  36.7907000000	  25.2537000000
C	  36.3899000000	  39.1321000000	  26.0153000000
C	  43.6638000000	  37.7110000000	  22.9970000000
H	  41.5156000000	  37.6867000000	  28.9091000000
H	  40.4594000000	  36.6101000000	  29.7808000000
H	  42.3422000000	  35.5826000000	  28.5342000000
H	  40.8873000000	  35.0232000000	  27.7803000000
H	  38.5464000000	  37.9881000000	  29.6747000000
H	  38.8200000000	  39.1982000000	  28.4862000000
H	  43.8386000000	  35.6033000000	  26.8224000000
H	  42.7882000000	  34.8589000000	  25.5984000000
H	  36.9060000000	  36.9138000000	  27.9688000000
H	  36.4996000000	  38.5353000000	  28.3887000000
H	  43.9448000000	  37.6961000000	  25.8272000000
H	  44.8056000000	  36.4769000000	  24.9641000000
H	  35.9340000000	  39.9501000000	  26.6660000000
H	  36.5956000000	  39.7213000000	  25.1094000000
H	  35.5761000000	  38.4135000000	  25.7811000000
H	  43.0594000000	  37.6599000000	  22.0904000000
H	  43.9447000000	  38.7742000000	  23.1110000000
H	  44.5421000000	  37.1436000000	  22.7988000000
