57

Li	  41.4147000000	  28.1279000000	  43.9850000000
O	  44.8533000000	  30.4848000000	  45.2276000000
O	  43.0522000000	  29.6076000000	  44.1289000000
C	  45.3892000000	  29.7452000000	  44.1781000000
C	  44.1862000000	  29.1250000000	  43.4137000000
C	  43.5407000000	  30.7448000000	  44.8396000000
H	  45.9894000000	  30.4318000000	  43.5929000000
H	  46.0397000000	  28.9014000000	  44.4952000000
H	  44.1322000000	  29.4723000000	  42.3523000000
H	  44.3380000000	  28.0806000000	  43.4295000000
H	  42.9260000000	  31.0516000000	  45.7469000000
H	  43.4090000000	  31.5541000000	  44.1164000000
O	  39.7542000000	  27.0868000000	  44.3170000000
O	  41.8455000000	  27.5255000000	  45.9457000000
O	  40.2117000000	  29.2160000000	  43.2385000000
O	  43.4363000000	  24.7139000000	  46.0273000000
C	  39.5786000000	  26.9082000000	  45.6600000000
C	  40.9406000000	  26.4470000000	  46.1548000000
C	  38.6112000000	  27.4645000000	  43.5883000000
C	  43.1524000000	  27.1296000000	  46.4149000000
C	  39.1187000000	  28.5172000000	  42.6046000000
C	  43.8630000000	  26.0209000000	  45.6266000000
C	  39.8757000000	  30.2399000000	  44.0916000000
C	  44.2087000000	  23.6696000000	  45.4962000000
H	  39.2841000000	  27.7691000000	  46.2137000000
H	  38.8762000000	  26.0522000000	  45.6780000000
H	  40.9233000000	  26.0988000000	  47.2045000000
H	  41.2692000000	  25.5865000000	  45.5116000000
H	  38.1422000000	  26.5746000000	  43.2267000000
H	  37.9655000000	  28.0471000000	  44.3275000000
H	  43.7433000000	  28.0546000000	  46.3366000000
H	  43.0229000000	  26.9392000000	  47.4958000000
H	  39.3947000000	  28.0789000000	  41.6721000000
H	  38.2081000000	  29.0311000000	  42.3243000000
H	  43.8371000000	  26.0991000000	  44.5529000000
H	  44.8875000000	  26.0869000000	  45.7492000000
H	  39.2854000000	  30.9004000000	  43.5435000000
H	  39.1837000000	  29.9307000000	  44.8521000000
H	  40.8117000000	  30.6262000000	  44.4913000000
H	  43.9709000000	  22.7355000000	  46.0167000000
H	  43.9383000000	  23.5962000000	  44.3787000000
H	  45.2706000000	  23.9036000000	  45.6974000000
N	  43.6693000000	  25.1980000000	  41.9528000000
S	  42.2232000000	  25.8540000000	  41.8191000000
O	  42.0701000000	  26.8868000000	  42.8069000000
O	  41.7851000000	  26.0918000000	  40.4532000000
C	  41.1102000000	  24.5601000000	  42.3466000000
F	  41.4289000000	  24.1092000000	  43.5000000000
F	  41.1215000000	  23.5949000000	  41.4136000000
F	  39.8602000000	  24.9225000000	  42.3987000000
S	  44.9016000000	  25.3858000000	  41.0419000000
O	  45.2168000000	  26.7975000000	  40.9400000000
O	  44.9342000000	  24.6311000000	  39.8286000000
C	  46.3310000000	  24.7485000000	  42.0924000000
F	  47.4586000000	  24.7396000000	  41.4103000000
F	  46.5623000000	  25.4180000000	  43.1440000000
F	  46.1078000000	  23.4642000000	  42.5109000000
