76

Li	  41.4657000000	  43.5060000000	  33.2953000000
O	  45.4151000000	  48.5039000000	  35.5190000000
O	  43.5268000000	  45.4665000000	  36.3000000000
O	  45.6605000000	  51.2322000000	  35.3508000000
O	  41.8439000000	  43.0110000000	  35.3103000000
C	  45.0207000000	  47.1565000000	  35.6117000000
C	  43.6247000000	  46.9032000000	  36.2640000000
C	  44.6802000000	  49.2068000000	  34.5428000000
C	  42.2760000000	  44.9560000000	  36.7016000000
C	  45.5450000000	  50.4222000000	  34.1943000000
C	  42.3470000000	  43.4515000000	  36.5934000000
C	  46.4846000000	  52.3681000000	  35.0993000000
C	  41.4463000000	  41.7405000000	  35.2551000000
H	  45.1642000000	  46.6053000000	  34.7193000000
H	  45.7571000000	  46.6853000000	  36.2213000000
H	  43.5991000000	  47.4146000000	  37.2852000000
H	  42.7580000000	  47.2883000000	  35.7489000000
H	  44.6948000000	  48.6790000000	  33.5785000000
H	  43.6751000000	  49.4963000000	  34.7637000000
H	  42.0293000000	  45.2721000000	  37.6822000000
H	  41.4148000000	  45.3316000000	  36.1186000000
H	  46.4996000000	  50.1615000000	  33.7724000000
H	  45.0030000000	  51.0570000000	  33.4737000000
H	  43.2835000000	  42.9783000000	  36.9173000000
H	  41.6623000000	  43.0095000000	  37.3697000000
H	  47.3815000000	  52.0565000000	  34.5939000000
H	  46.0300000000	  53.1128000000	  34.4312000000
H	  46.7483000000	  52.7885000000	  36.0825000000
H	  41.9781000000	  40.9365000000	  35.7782000000
H	  40.4781000000	  41.7563000000	  35.8085000000
H	  41.1727000000	  41.3481000000	  34.2952000000
O	  43.3244000000	  43.4048000000	  32.6208000000
O	  41.6955000000	  45.5109000000	  33.3042000000
O	  43.9912000000	  40.2885000000	  33.7661000000
O	  39.4661000000	  43.7914000000	  33.4994000000
C	  43.8088000000	  44.7977000000	  32.7104000000
C	  42.6534000000	  45.8698000000	  32.4102000000
C	  44.4033000000	  42.4858000000	  32.7331000000
C	  40.4033000000	  45.8402000000	  32.8706000000
C	  44.0215000000	  41.0256000000	  32.5457000000
C	  39.3489000000	  45.2112000000	  33.8217000000
C	  43.8941000000	  38.8754000000	  33.6827000000
C	  38.3569000000	  43.1265000000	  34.0788000000
H	  44.2090000000	  44.8866000000	  33.7097000000
H	  44.5238000000	  44.9381000000	  31.9610000000
H	  43.0518000000	  46.8476000000	  32.5847000000
H	  42.3764000000	  45.8361000000	  31.3060000000
H	  45.0732000000	  42.7651000000	  31.9071000000
H	  44.8990000000	  42.7097000000	  33.7189000000
H	  40.1940000000	  46.9445000000	  32.7621000000
H	  40.2795000000	  45.3664000000	  31.9274000000
H	  43.1739000000	  40.8968000000	  31.8726000000
H	  44.9154000000	  40.5304000000	  32.1633000000
H	  39.5040000000	  45.1976000000	  34.9523000000
H	  38.4132000000	  45.5632000000	  33.5565000000
H	  43.8885000000	  38.3403000000	  34.7041000000
H	  43.1082000000	  38.4408000000	  33.0690000000
H	  44.7777000000	  38.5761000000	  33.1882000000
H	  37.3900000000	  43.6716000000	  34.1651000000
H	  38.0806000000	  42.1912000000	  33.6007000000
H	  38.5228000000	  42.8768000000	  35.1075000000
N	  40.7136000000	  42.7415000000	  29.2205000000
S	  39.9435000000	  42.4768000000	  30.5666000000
O	  40.8231000000	  42.4008000000	  31.6781000000
O	  38.7665000000	  43.2384000000	  30.7615000000
C	  39.3279000000	  40.7652000000	  30.3255000000
F	  40.3547000000	  39.9985000000	  30.1557000000
F	  38.6079000000	  40.6689000000	  29.2154000000
F	  38.6151000000	  40.3391000000	  31.2896000000
S	  42.2478000000	  42.4781000000	  28.8616000000
O	  42.8061000000	  41.2536000000	  29.3916000000
O	  43.0625000000	  43.6692000000	  28.9647000000
C	  42.0919000000	  42.2670000000	  27.0732000000
F	  41.9486000000	  43.3915000000	  26.4481000000
F	  43.1846000000	  41.6938000000	  26.5953000000
F	  41.0335000000	  41.5161000000	  26.7671000000
