31

Li	  54.5706000000	  40.7756000000	  28.6549000000
O	  56.9057000000	  40.5188000000	  27.8127000000
O	  55.1294000000	  39.1525000000	  29.3364000000
O	  55.2404000000	  42.5130000000	  28.9479000000
O	  52.8469000000	  40.4858000000	  29.3269000000
C	  57.1170000000	  39.1277000000	  28.0500000000
C	  56.4726000000	  38.7104000000	  29.4144000000
C	  57.3616000000	  41.4497000000	  28.8016000000
C	  54.5270000000	  39.3525000000	  30.6130000000
C	  56.6055000000	  42.8070000000	  28.5054000000
C	  52.9754000000	  39.5672000000	  30.3868000000
C	  54.4830000000	  43.6159000000	  28.8671000000
C	  51.5354000000	  40.8741000000	  29.0221000000
H	  56.6169000000	  38.6577000000	  27.2687000000
H	  58.1663000000	  38.8104000000	  28.0359000000
H	  56.5326000000	  37.6176000000	  29.4864000000
H	  57.0236000000	  39.0646000000	  30.2012000000
H	  57.2254000000	  41.1734000000	  29.8871000000
H	  58.4628000000	  41.5709000000	  28.7514000000
H	  54.7601000000	  38.4020000000	  31.1559000000
H	  54.9104000000	  40.2249000000	  31.0594000000
H	  57.1143000000	  43.6538000000	  28.9498000000
H	  56.5686000000	  43.0027000000	  27.3971000000
H	  52.4437000000	  38.6446000000	  30.2331000000
H	  52.5621000000	  39.9428000000	  31.3272000000
H	  54.6575000000	  44.0750000000	  27.9311000000
H	  53.5190000000	  43.2235000000	  29.0288000000
H	  54.6682000000	  44.3572000000	  29.6643000000
H	  51.1538000000	  41.6001000000	  29.7659000000
H	  51.5666000000	  41.3072000000	  27.9998000000
H	  50.8861000000	  39.9828000000	  28.9338000000
