46

Li	  29.7566000000	  28.9301000000	  23.9301000000
O	  30.0353000000	  29.8904000000	  25.6058000000
O	  30.9048000000	  30.8038000000	  23.1157000000
O	  28.1198000000	  29.5040000000	  23.7706000000
O	  30.2327000000	  28.3570000000	  21.7970000000
C	  30.7384000000	  31.1107000000	  25.4831000000
C	  31.7024000000	  30.9031000000	  24.2977000000
C	  28.7184000000	  30.0804000000	  26.0464000000
C	  31.6266000000	  30.3264000000	  21.9712000000
C	  27.7960000000	  30.3618000000	  24.8273000000
C	  30.7437000000	  29.5105000000	  21.0251000000
C	  27.2164000000	  29.7010000000	  22.6969000000
C	  29.5893000000	  27.3785000000	  21.0351000000
H	  30.0184000000	  32.0049000000	  25.4226000000
H	  31.3889000000	  31.2009000000	  26.3603000000
H	  32.4171000000	  31.6512000000	  24.1797000000
H	  32.2190000000	  29.8962000000	  24.5068000000
H	  28.3915000000	  29.1093000000	  26.4785000000
H	  28.7056000000	  30.8865000000	  26.7587000000
H	  32.1271000000	  31.1994000000	  21.4909000000
H	  32.4762000000	  29.6915000000	  22.2620000000
H	  26.7213000000	  30.1108000000	  25.1149000000
H	  27.7533000000	  31.4074000000	  24.4539000000
H	  29.9433000000	  30.0928000000	  20.5979000000
H	  31.3296000000	  29.1724000000	  20.1784000000
H	  27.4794000000	  30.5982000000	  22.0978000000
H	  27.3087000000	  28.9015000000	  21.9431000000
H	  26.1256000000	  29.8580000000	  23.0322000000
H	  28.9361000000	  27.7876000000	  20.2534000000
H	  30.4125000000	  26.8236000000	  20.6849000000
H	  28.9136000000	  26.7444000000	  21.6166000000
N	  30.3163000000	  25.1783000000	  26.0310000000
S	  30.7801000000	  26.6794000000	  26.2358000000
O	  30.7858000000	  27.3690000000	  24.9857000000
O	  30.2995000000	  27.3158000000	  27.4680000000
C	  32.5371000000	  26.3617000000	  26.5294000000
F	  33.2268000000	  27.4321000000	  26.2472000000
F	  32.9536000000	  25.3544000000	  25.8303000000
F	  32.7907000000	  26.0916000000	  27.7716000000
S	  29.0088000000	  24.7997000000	  25.2200000000
O	  29.1935000000	  23.5801000000	  24.4584000000
O	  28.1885000000	  25.9084000000	  24.6834000000
C	  27.8996000000	  24.2191000000	  26.5888000000
F	  26.6807000000	  23.9079000000	  26.1049000000
F	  28.4086000000	  23.1967000000	  27.2423000000
F	  27.6872000000	  25.1470000000	  27.5382000000
