58

Li	  25.3284000000	  19.3938000000	  50.4726000000
O	  25.7919000000	  15.4693000000	  49.7352000000
O	  25.9732000000	  17.7550000000	  49.8855000000
C	  26.8788000000	  15.7524000000	  50.6540000000
C	  27.2303000000	  17.1658000000	  50.1153000000
C	  25.1391000000	  16.7248000000	  49.4786000000
H	  26.5368000000	  15.7845000000	  51.7028000000
H	  27.6515000000	  14.9881000000	  50.5282000000
H	  27.8940000000	  17.6879000000	  50.7858000000
H	  27.8463000000	  17.0706000000	  49.2071000000
H	  24.9611000000	  16.7387000000	  48.3841000000
H	  24.1478000000	  16.7554000000	  49.9548000000
O	  28.5614000000	  22.5984000000	  46.7488000000
O	  28.3230000000	  21.1112000000	  49.0397000000
O	  25.9529000000	  23.1400000000	  46.6211000000
O	  26.7000000000	  20.0738000000	  51.4628000000
C	  28.7985000000	  21.1777000000	  46.6346000000
C	  29.2984000000	  20.7901000000	  48.0415000000
C	  28.1017000000	  23.2357000000	  45.5730000000
C	  28.6859000000	  20.8994000000	  50.3605000000
C	  26.6541000000	  22.8283000000	  45.3779000000
C	  27.4690000000	  21.2445000000	  51.2452000000
C	  24.5692000000	  23.3325000000	  46.2776000000
C	  26.7292000000	  19.5767000000	  52.7652000000
H	  27.9029000000	  20.5481000000	  46.4180000000
H	  29.6188000000	  20.9582000000	  45.8897000000
H	  29.5581000000	  19.7150000000	  47.9979000000
H	  30.2166000000	  21.2459000000	  48.3390000000
H	  28.2989000000	  24.2871000000	  45.8347000000
H	  28.7697000000	  23.0270000000	  44.7703000000
H	  29.1029000000	  19.9962000000	  50.6401000000
H	  29.3921000000	  21.6868000000	  50.6266000000
H	  26.3938000000	  23.4798000000	  44.6078000000
H	  26.4086000000	  21.8374000000	  44.9708000000
H	  27.6708000000	  21.7104000000	  52.2247000000
H	  26.8855000000	  22.0532000000	  50.8038000000
H	  24.4773000000	  24.1657000000	  45.5934000000
H	  24.1993000000	  22.4260000000	  45.6930000000
H	  23.9618000000	  23.3683000000	  47.1714000000
H	  27.6820000000	  19.1466000000	  52.9804000000
H	  26.5597000000	  20.1914000000	  53.6341000000
H	  26.1645000000	  18.6951000000	  52.9413000000
S	  16.2378000000	  16.8939000000	  44.1869000000
S	  18.1894000000	  16.4671000000	  45.0481000000
S	  19.4482000000	  18.1133000000	  44.7056000000
S	  23.7480000000	  19.4290000000	  45.7732000000
S	  25.3846000000	  19.4962000000	  47.0806000000
S	  25.2897000000	  20.9020000000	  48.7088000000
S	  22.4705000000	  17.7855000000	  46.2135000000
S	  21.3510000000	  17.4053000000	  44.4097000000
S	  20.3681000000	  11.0687000000	  56.7413000000
S	  19.6933000000	  10.3240000000	  54.8273000000
S	  20.7849000000	  11.2820000000	  53.3171000000
S	  22.2663000000	  15.7663000000	  51.8774000000
S	  23.2758000000	  17.5461000000	  52.6700000000
S	  23.2658000000	  19.2554000000	  51.2913000000
S	  21.4962000000	  14.6663000000	  53.5333000000
S	  20.1643000000	  13.1360000000	  52.9245000000
