76

Li	  28.9516000000	  58.8619000000	  27.2918000000
O	  27.0780000000	  59.4849649100	  27.1941000000
O	  27.6773000000	  57.8729000000	  29.3785000000
O	  29.4014000000	  59.8163149100	  25.7781000000
O	  26.3932000000	  56.7231000000	  31.8755000000
C	  26.0488000000	  58.7804000000	  27.8690000000
C	  26.5272000000	  58.7061000000	  29.2815000000
C	  26.9639000000	  59.6840049100	  25.7283000000
C	  28.2353000000	  57.7280000000	  30.6863000000
C	  28.2092000000	  60.5031149100	  25.3713000000
C	  27.6930000000	  56.4415000000	  31.2785000000
C	  30.5206000000	  60.2596049100	  25.0299000000
C	  25.8070000000	  55.5378000000	  32.3234000000
H	  25.1077000000	  59.3209629100	  27.8954000000
H	  25.9734000000	  57.7865000000	  27.5058000000
H	  26.5046000000	  59.7018349100	  29.5882000000
H	  25.8628000000	  58.1975000000	  29.9080000000
H	  27.0456000000	  58.6890000000	  25.2621000000
H	  25.9970000000	  60.1358649100	  25.5079000000
H	  29.3263000000	  57.5982000000	  30.5592000000
H	  28.2004000000	  58.6786000000	  31.2842000000
H	  28.1953000000	  60.6992449100	  24.3086000000
H	  28.1436000000	  61.5196449100	  25.8282000000
H	  27.6510000000	  55.5234000000	  30.6545000000
H	  28.2823000000	  56.0525000000	  32.1095000000
H	  30.7031000000	  61.3600949100	  25.1953000000
H	  31.4132000000	  59.6911449100	  25.2308000000
H	  30.2215000000	  60.0075249100	  23.9944000000
H	  24.7899000000	  55.8613000000	  32.5661000000
H	  25.6297000000	  54.8448000000	  31.5154000000
H	  26.3541000000	  55.0159000000	  33.0648000000
O	  30.0867000000	  59.7840849100	  28.5515000000
O	  31.3984000000	  62.3407449100	  29.2729000000
O	  31.9958000000	  57.9178000000	  27.1716000000
O	  33.8583000000	  62.6448949100	  27.4798000000
C	  29.4524000000	  60.8585649100	  29.2962000000
C	  30.0680000000	  62.1333449100	  28.8046000000
C	  31.4482000000	  59.4395049100	  28.9002000000
C	  32.0168000000	  63.5623149100	  28.8700000000
C	  31.8675000000	  57.9606000000	  28.5505000000
C	  32.6337000000	  63.3419549100	  27.4131000000
C	  32.6574000000	  56.7163000000	  26.7809000000
C	  34.4484000000	  62.6172449100	  26.2157000000
H	  28.4222000000	  60.9282349100	  28.9975000000
H	  29.5204000000	  60.6716249100	  30.3727000000
H	  30.1162000000	  62.2611649100	  27.7046000000
H	  29.4825000000	  62.8849749100	  29.1747000000
H	  32.1693000000	  60.1135149100	  28.3861000000
H	  31.7110000000	  59.5832849100	  29.9400000000
H	  31.3755000000	  64.4478349100	  29.0206000000
H	  32.7892000000	  63.8001049100	  29.5251000000
H	  32.7973000000	  57.8240000000	  29.0771000000
H	  31.3170000000	  57.0514000000	  28.8503000000
H	  31.9430000000	  62.9616149100	  26.6527000000
H	  32.7733000000	  64.3540049100	  27.0823000000
H	  33.6654000000	  56.6653000000	  27.0479000000
H	  32.0164000000	  55.9699000000	  27.1289000000
H	  32.6698000000	  56.7354000000	  25.7151000000
H	  35.4222000000	  62.0969149100	  26.2078000000
H	  33.7923000000	  62.0686649100	  25.5068000000
H	  34.7439000000	  63.6657749100	  25.8921000000
N	  29.1031000000	  54.9123000000	  28.4241000000
S	  30.2382000000	  53.9503000000	  28.9598000000
O	  31.0452000000	  53.2623000000	  28.0180000000
O	  30.9401000000	  54.4591000000	  30.1044000000
C	  29.3609000000	  52.5236000000	  29.6574000000
F	  30.1503000000	  51.8005000000	  30.4658000000
F	  28.9450000000	  51.7360000000	  28.7110000000
F	  28.2417000000	  52.9078000000	  30.3419000000
S	  29.0110000000	  55.5360000000	  27.0256000000
O	  29.8214000000	  54.9434000000	  25.9610000000
O	  28.9193000000	  56.9904000000	  27.0739000000
C	  27.2929000000	  55.1313000000	  26.5876000000
F	  26.8320000000	  55.6024000000	  25.4321000000
F	  27.2223000000	  53.8148000000	  26.5845000000
F	  26.4515000000	  55.5948000000	  27.4935000000
