61

Li	   4.6412800000	  57.1855000000	  55.4776000000
O	   4.8784300000	  53.9638000000	  58.9362000000
O	   5.0633900000	  54.8663000000	  56.3025000000
O	   6.2486900000	  52.5498000000	  60.9865205338
O	   6.3348200000	  56.6157000000	  54.6916000000
C	   3.7446800000	  54.5657000000	  58.2447000000
C	   3.9522100000	  54.1238000000	  56.8050000000
C	   4.7994200000	  54.3003000000	  60.3203605338
C	   5.1483700000	  54.5994000000	  54.8888000000
C	   6.0957000000	  53.9928000000	  61.0668605338
C	   6.4025500000	  55.2440000000	  54.4051000000
C	   7.2522900000	  52.0444000000	  61.8758305338
C	   7.5493700000	  57.4081000000	  54.6330000000
H	   2.7694200000	  54.2632000000	  58.6145000000
H	   3.8443400000	  55.6828000000	  58.4479000000
H	   4.1212700000	  53.0973000000	  56.6490000000
H	   3.1306400000	  54.2379000000	  56.1481000000
H	   4.5618900000	  55.4121000000	  60.4267805338
H	   4.0327400000	  53.8226000000	  60.8819605338
H	   5.3431900000	  53.5438000000	  54.7989000000
H	   4.2670600000	  54.9345000000	  54.4024000000
H	   6.9486600000	  54.6089000000	  60.6674305338
H	   5.8587100000	  54.1606000000	  62.0936205338
H	   7.1465300000	  54.7466000000	  54.9704000000
H	   6.5123500000	  55.0786000000	  53.3273000000
H	   8.0964600000	  52.6794000000	  61.5901605338
H	   7.0702300000	  52.1069000000	  62.9321505338
H	   7.5042900000	  51.0243000000	  61.7317805338
H	   7.3990700000	  58.4185000000	  54.8757000000
H	   8.3953300000	  56.9964000000	  55.1622000000
H	   7.9838800000	  57.3911000000	  53.6081000000
O	   2.7214400000	  57.1365000000	  56.1977000000
O	   3.7792800000	  57.4792000000	  53.8310000000
O	   4.8988800000	  57.9124000000	  57.1555000000
O	   5.4208600000	  59.4975149100	  54.6611000000
C	   1.8369800000	  57.0222000000	  55.1479000000
C	   2.3398100000	  57.7342000000	  53.8957000000
C	   2.6372500000	  58.3752000000	  56.8443000000
C	   4.4574300000	  58.2387000000	  52.8112000000
C	   3.8282000000	  58.4710000000	  57.8436000000
C	   4.8256200000	  59.6130449100	  53.3424000000
C	   6.0754000000	  57.8515000000	  58.0278000000
C	   5.8371900000	  60.6712149100	  55.2932000000
H	   1.6814600000	  55.9399000000	  54.9061000000
H	   0.8440171739	  57.3497000000	  55.3798000000
H	   1.8419400000	  57.3314000000	  53.0070000000
H	   1.9934300000	  58.7742000000	  53.9654000000
H	   2.7852100000	  59.1071000000	  55.9799000000
H	   1.7140000000	  58.5573000000	  57.3252000000
H	   5.3337100000	  57.6145000000	  52.6372000000
H	   3.8143900000	  58.3181000000	  51.9121000000
H	   4.0016200000	  59.5357949100	  58.0947000000
H	   3.6935500000	  57.9385000000	  58.7473000000
H	   5.5818700000	  60.0553649100	  52.7129000000
H	   3.9308400000	  60.2206649100	  53.3963000000
H	   6.6066600000	  58.7751000000	  57.9917000000
H	   5.8205500000	  57.6184000000	  59.0145000000
H	   6.6569700000	  56.9868000000	  57.7577000000
H	   6.6226700000	  60.9965949100	  54.5043000000
H	   4.9664600000	  61.3231049100	  55.3944000000
H	   6.3215300000	  60.5145649100	  56.2442000000
