50

Li	  18.0450000000	  27.1230000000	   6.6757800000
O	  17.7277000000	  25.5087000000	   5.7664600000
O	  17.9431000000	  24.1558000000	   4.0162200000
C	  17.8761000000	  24.2075000000	   6.3046100000
C	  17.5593000000	  23.3314000000	   5.0948300000
C	  17.7478000000	  25.4300000000	   4.3348800000
H	  18.9728000000	  24.0039000000	   6.4686400000
H	  17.4262000000	  23.9648000000	   7.2495900000
H	  18.1535000000	  22.4361000000	   5.2903400000
H	  16.5145000000	  23.0084000000	   5.0640300000
H	  16.8424000000	  25.7831000000	   3.8713800000
H	  18.6129000000	  25.9782000000	   3.9567100000
O	  16.6041000000	  27.5865000000	   7.7267500000
O	  16.7271000000	  28.3022000000	   4.6805600000
O	  18.4497000000	  25.8881000000	   8.9310300000
O	  15.9451000000	  27.6673000000	   1.8882700000
C	  15.5354000000	  27.9448000000	   6.8420700000
C	  15.9408000000	  28.9079000000	   5.7113100000
C	  16.1694000000	  26.6709000000	   8.7070500000
C	  16.9448000000	  29.2172000000	   3.5399200000
C	  17.3423000000	  26.4591000000	   9.6150100000
C	  17.2070000000	  28.3814000000	   2.2115200000
C	  19.6082000000	  26.2625000000	   9.5827300000
C	  16.1117000000	  26.7069000000	   0.9056370000
H	  15.1513000000	  27.0695000000	   6.4790500000
H	  14.7663000000	  28.5529000000	   7.3965700000
H	  15.0359000000	  29.3846000000	   5.4147500000
H	  16.5609000000	  29.6766000000	   6.1736600000
H	  15.3062000000	  27.0471000000	   9.2380500000
H	  15.7961000000	  25.7645000000	   8.2354600000
H	  16.0621000000	  29.8532000000	   3.3067900000
H	  17.7342000000	  29.9179000000	   3.8982600000
H	  17.6108000000	  27.4734000000	   9.9797500000
H	  17.0867000000	  25.8784000000	  10.4849000000
H	  17.5274000000	  29.0245000000	   1.3328200000
H	  17.8848000000	  27.5510000000	   2.4686300000
H	  19.9929000000	  27.3243000000	   9.5567200000
H	  19.5009000000	  26.1095000000	  10.6255000000
H	  20.4738000000	  25.6607000000	   9.2539400000
H	  15.1427000000	  26.1471000000	   0.9694580000
H	  16.1599000000	  27.1592000000	  -0.0872405338
H	  16.8481000000	  25.8858000000	   1.0468700000
S	  19.2262000000	  28.9344000000	   6.3449600000
S	  20.5615000000	  27.8336000000	   5.1256200000
S	  22.2090000000	  26.9731000000	   6.0999700000
S	  25.1615000000	  23.2282000000	   6.3011300000
S	  26.1472000000	  21.6933000000	   5.3861800000
S	  25.4493000000	  19.8508000000	   6.1313100000
S	  23.4344000000	  23.8673000000	   5.2168100000
S	  21.9498000000	  24.9724000000	   6.2607700000
