39

Li	  53.6538000000	   1.9254900000	  59.0467000000
O	  55.2880000000	   2.4806900000	  58.0546000000
O	  53.8471000000	   0.3137150900	  58.2983000000
O	  54.1819000000	   3.0312400000	  60.4143305338
O	  52.2467000000	   1.1025500000	  60.3536805338
C	  55.4561000000	   1.4559500000	  57.0614000000
C	  55.0259000000	   0.0951150900	  57.5843000000
C	  56.1182000000	   2.3477400000	  59.1825655338
C	  53.5878000000	  -0.6595849100	  59.3577505338
C	  55.5171000000	   3.3284300000	  60.2174605338
C	  52.1406000000	  -0.2872849100	  59.9744305338
C	  53.4590000000	   4.1289200000	  60.9521305338
C	  51.3000000000	   1.4161800000	  61.3749505338
H	  54.9323000000	   1.7088100000	  56.1525000000
H	  56.4973000000	   1.4606000000	  56.7293000000
H	  54.9479000000	  -0.7443849100	  56.8633000000
H	  55.7954000000	  -0.3233849100	  58.2250000000
H	  56.1673000000	   1.3066600000	  59.5904105338
H	  57.1394000000	   2.6808500000	  58.8012000000
H	  53.6434000000	  -1.7200849100	  59.2146995338
H	  54.2902000000	  -0.5049849100	  60.1402905338
H	  55.9935000000	   3.2505400000	  61.1407905338
H	  55.7849000000	   4.3446900000	  59.8183605338
H	  51.4160000000	  -0.2796849100	  59.0490000000
H	  51.9032000000	  -1.0502849100	  60.6888305338
H	  53.5164000000	   4.0909800000	  62.0696205338
H	  53.6376000000	   5.1652300000	  60.5891505338
H	  52.3695000000	   4.0299200000	  60.6233205338
H	  51.8088000000	   1.3836400000	  62.3051705338
H	  50.9949000000	   2.4139900000	  61.3190205338
H	  50.4044000000	   0.7799150900	  61.3551305338
S	  46.2996000000	   1.9823000000	  48.4720000000
S	  47.0628000000	   0.4478150900	  49.6302000000
S	  48.2721000000	   1.4046500000	  51.1174000000
S	  50.0488000000	   2.1067500000	  55.1381000000
S	  51.5164000000	   1.3970500000	  56.4385000000
S	  52.1858000000	   2.8007300000	  57.9365000000
S	  48.7337000000	   0.5760150900	  54.4610000000
S	  47.4326000000	   1.4569200000	  52.9848000000
