61

Li	  28.0023000000	   1.6825800000	  10.2248000000
O	  29.9967000000	   1.3182600000	  10.8052000000
O	  27.6392000000	   0.3916150900	  11.6027000000
O	  32.1780000000	   2.1675600000	  12.7882000000
O	  25.6433000000	   1.2588400000	   9.9664200000
C	  30.0569000000	   0.2600150900	  11.8797000000
C	  28.6782000000	  -0.5398849100	  11.7641000000
C	  31.3365000000	   1.8437500000	  10.4716000000
C	  26.3992000000	  -0.2417849100	  11.5669000000
C	  31.8664000000	   2.7699400000	  11.5953000000
C	  25.3201000000	   0.8455150900	  11.2413000000
C	  31.9178000000	   3.0236200000	  13.9728000000
C	  24.6775000000	   2.0738100000	   9.3077000000
H	  30.8142000000	  -0.4687849100	  11.4593000000
H	  30.2479000000	   0.6653150900	  12.8650000000
H	  28.7465000000	  -1.3235849100	  10.9704000000
H	  28.5317000000	  -1.1997849100	  12.6066000000
H	  32.0769000000	   1.1352400000	  10.2070000000
H	  31.0809000000	   2.5829300000	   9.6665600000
H	  26.4214000000	  -1.0903849100	  10.8224000000
H	  26.1385000000	  -0.6809849100	  12.5590000000
H	  32.8268000000	   3.2177300000	  11.2370000000
H	  31.1421000000	   3.5756600000	  11.6823000000
H	  24.3759000000	   0.4053150900	  11.2509000000
H	  25.3080000000	   1.6514900000	  11.9880000000
H	  30.8730000000	   3.1497500000	  14.1529000000
H	  32.5774000000	   2.4907300000	  14.6921000000
H	  32.2115000000	   4.0481900000	  13.6871000000
H	  24.5272000000	   1.6628000000	   8.2991100000
H	  23.6454000000	   2.0091700000	   9.7729100000
H	  25.0520000000	   3.1045800000	   9.3325900000
O	  28.8887000000	   2.6535400000	   8.8701000000
O	  27.9144000000	   3.4310700000	  10.9525000000
O	  28.1801000000	  -0.1539849100	   8.3880600000
O	  25.9986000000	   3.3768100000	  13.3646000000
C	  28.2016000000	   3.8907800000	   8.7195400000
C	  28.1696000000	   4.5609200000	  10.1372000000
C	  29.0619000000	   1.9470600000	   7.6917900000
C	  28.1097000000	   3.6955700000	  12.3004000000
C	  29.3569000000	   0.4373150900	   7.8784600000
C	  26.8682000000	   4.3825200000	  12.9570000000
C	  28.2340000000	  -1.5314849100	   8.3274000000
C	  24.7288000000	   3.7476200000	  13.8596000000
H	  28.6750000000	   4.6379000000	   7.9996400000
H	  27.1993000000	   3.6356000000	   8.3587200000
H	  29.1558000000	   5.0502400000	  10.1410000000
H	  27.3336000000	   5.3018500000	  10.3340000000
H	  28.3429000000	   2.1341500000	   6.8599800000
H	  29.9480000000	   2.4592900000	   7.2553800000
H	  28.3884000000	   2.7038000000	  12.7833000000
H	  28.9825000000	   4.3569600000	  12.5355000000
H	  29.5402000000	  -0.0174849100	   6.9524900000
H	  30.3449000000	   0.1827150900	   8.3718500000
H	  27.3151000000	   4.8659000000	  13.8373000000
H	  26.5344000000	   5.1834200000	  12.3680000000
H	  29.1010000000	  -1.9717849100	   8.7610500000
H	  27.3359000000	  -1.9793849100	   8.8323400000
H	  28.1519000000	  -1.9049849100	   7.2898300000
H	  24.7483000000	   4.7305400000	  14.4347000000
H	  23.9474000000	   3.7229700000	  13.1087000000
H	  24.5013000000	   2.9692900000	  14.5973000000
