42

Li	  18.5990000000	  12.7157000000	  56.6968000000
O	  18.2516000000	  12.4927000000	  58.7596000000
O	  17.5752000000	  12.0188000000	  60.9055305338
C	  17.0257000000	  13.2349000000	  59.0845000000
C	  16.9636000000	  13.2408000000	  60.6185205338
C	  18.5965000000	  12.0043000000	  59.9502005338
H	  17.0097000000	  14.2482000000	  58.7140000000
H	  16.1069000000	  12.7280000000	  58.6353000000
H	  17.4076000000	  14.1492000000	  61.1050305338
H	  15.9447000000	  13.2753000000	  60.9704905338
H	  18.9055000000	  10.9596000000	  59.8109205338
H	  19.3782000000	  12.6185000000	  60.2347405338
O	  17.9758000000	  10.8851000000	  56.6738000000
O	  20.1860000000	  11.9498000000	  56.2697000000
O	  17.1109000000	  13.1765000000	  55.6916000000
O	  19.6135000000	  14.4765000000	  57.3123000000
C	  18.9143000000	  10.0135000000	  56.0843000000
C	  20.2089000000	  10.5570000000	  56.5455000000
C	  16.7026000000	  10.8789000000	  56.0177000000
C	  21.2400000000	  12.7353000000	  56.8142000000
C	  16.6742000000	  12.0308000000	  55.0163000000
C	  20.8417000000	  14.2220000000	  56.7425000000
C	  16.7843000000	  14.3911000000	  55.0007000000
C	  19.2717000000	  15.8660000000	  57.4259000000
H	  18.7455000000	   8.9413000000	  56.4031000000
H	  18.9242000000	  10.0214000000	  54.9858000000
H	  20.2602000000	  10.3459000000	  57.6533000000
H	  21.0580000000	  10.1662000000	  55.9967000000
H	  16.4980000000	   9.9327000000	  55.6459000000
H	  15.8994000000	  10.9916000000	  56.7376000000
H	  21.4097000000	  12.3849000000	  57.8494000000
H	  22.2274000000	  12.5869000000	  56.2572000000
H	  17.3508000000	  11.8457000000	  54.1582000000
H	  15.6127000000	  12.1907000000	  54.5872000000
H	  21.6595000000	  14.6498000000	  57.2371000000
H	  20.9074000000	  14.5061000000	  55.6569000000
H	  17.0245000000	  14.1793000000	  53.9398000000
H	  15.7077000000	  14.5176000000	  55.0693000000
H	  17.2266000000	  15.3030000000	  55.3403000000
H	  19.3746000000	  16.4356000000	  56.5403000000
H	  18.2066000000	  15.9198000000	  57.7592000000
H	  19.8880000000	  16.4096000000	  58.0913000000
