53

Li	  44.9244000000	  10.8109000000	  55.6264000000
O	  45.4338000000	  12.0404000000	  57.1649000000
O	  44.2515000000	  12.7120000000	  58.9354000000
C	  45.1340000000	  13.4248000000	  56.8919000000
C	  44.5778000000	  13.9079000000	  58.2569000000
C	  45.1985000000	  11.7958000000	  58.5284000000
H	  46.0278000000	  13.9855000000	  56.5382000000
H	  44.3117000000	  13.3215000000	  56.1678000000
H	  45.1758000000	  14.5646000000	  58.8587000000
H	  43.6286000000	  14.4792000000	  58.0221000000
H	  44.7507000000	  10.8077000000	  58.6395000000
H	  46.0031000000	  11.7351000000	  59.2357625338
O	  43.4543000000	   9.8708200000	  51.6960000000
O	  44.5708000000	  10.2663000000	  53.6392000000
C	  44.8257000000	   9.7691600000	  51.5170000000
C	  45.2831000000	   9.3141600000	  52.8495000000
C	  43.3245000000	  10.2206000000	  53.0332000000
H	  44.9049000000	   9.0053700000	  50.7297000000
H	  45.3153000000	  10.7174000000	  51.2485000000
H	  45.0381000000	   8.2755800000	  53.1068000000
H	  46.3535000000	   9.4390500000	  52.8422000000
H	  42.7444000000	  11.1298000000	  53.1791000000
H	  42.7669000000	   9.3897400000	  53.4385000000
O	  45.4476000000	   8.8670800000	  56.8753000000
O	  46.9669000000	  10.3109000000	  55.4376000000
O	  43.2236000000	  10.0877000000	  56.1953000000
O	  45.9215000000	  12.6113000000	  54.3602000000
C	  46.7282000000	   8.3724400000	  56.5973000000
C	  47.6974000000	   9.4922000000	  56.3665000000
C	  44.3422000000	   8.0668100000	  56.4438000000
C	  47.8560000000	  11.3383000000	  55.0328000000
C	  43.0360000000	   8.8389300000	  56.8071000000
C	  47.2003000000	  12.1695000000	  53.9156000000
C	  42.1028000000	  10.9544000000	  56.4832000000
C	  45.2315000000	  13.4300000000	  53.4541000000
H	  47.0364000000	   7.7127900000	  57.3607000000
H	  46.8784000000	   7.7619900000	  55.7152000000
H	  48.0132000000	   9.9801100000	  57.3263000000
H	  48.5855000000	   9.1305500000	  55.8306000000
H	  44.5881000000	   8.1031500000	  55.4173000000
H	  44.3848000000	   7.0273500000	  56.8524000000
H	  48.1580000000	  12.0043000000	  55.8205000000
H	  48.7321000000	  10.9537000000	  54.4909000000
H	  42.1416000000	   8.3544600000	  56.6859000000
H	  43.1714000000	   9.0702700000	  57.8524000000
H	  47.7644000000	  13.0461000000	  53.6826000000
H	  47.2068000000	  11.6259000000	  52.9520000000
H	  41.0759000000	  10.5072000000	  56.5573000000
H	  42.4090000000	  11.4225000000	  57.4253000000
H	  42.0698000000	  11.7686000000	  55.7438000000
H	  45.6691000000	  14.3055000000	  52.9398000000
H	  44.8942000000	  12.7182000000	  52.6757000000
H	  44.3233000000	  13.6074000000	  54.0103000000
