57

Li	  24.4661000000	  33.6910000000	  46.6632000000
O	  22.4732000000	  31.3764000000	  48.0175000000
O	  24.4034000000	  32.4551000000	  48.2843000000
C	  22.4113000000	  31.9639000000	  49.3127000000
C	  23.6984000000	  32.7409000000	  49.4548000000
C	  23.8374000000	  31.2805000000	  47.8516000000
H	  21.5897000000	  32.6203000000	  49.3593000000
H	  22.3101000000	  31.1819000000	  50.0288000000
H	  23.6025000000	  33.7806000000	  49.5368000000
H	  24.4350000000	  32.3793000000	  50.2160000000
H	  24.1800000000	  30.3946000000	  48.3738000000
H	  23.9666000000	  31.0612000000	  46.8085000000
O	  22.8793000000	  34.7318000000	  46.3779000000
O	  23.0578000000	  37.6079000000	  47.6174000000
O	  24.4609000000	  32.7692000000	  45.0524000000
O	  23.8291000000	  40.3927000000	  47.1916000000
C	  21.9203000000	  35.5242000000	  47.0718000000
C	  22.6802000000	  36.3924000000	  48.1946000000
C	  22.3711000000	  33.9795000000	  45.2671000000
C	  23.7733000000	  38.4697000000	  48.5686000000
C	  23.4569000000	  33.5311000000	  44.2974000000
C	  24.6507000000	  39.4492000000	  47.8735000000
C	  25.5919000000	  32.3914000000	  44.2364000000
C	  24.7365000000	  41.3777000000	  46.6048000000
H	  21.3332000000	  36.2166000000	  46.5510000000
H	  21.3225000000	  34.8108000000	  47.5838000000
H	  21.8667000000	  36.5619000000	  48.9688000000
H	  23.4610000000	  35.8201000000	  48.6449000000
H	  21.9173000000	  33.1188000000	  45.6773000000
H	  21.6643000000	  34.5387000000	  44.6507000000
H	  23.0399000000	  38.8942000000	  49.2740000000
H	  24.4106000000	  37.7630000000	  49.1399000000
H	  23.0532000000	  32.9231000000	  43.5326000000
H	  23.7849000000	  34.4097000000	  43.7960000000
H	  25.2861000000	  39.9478000000	  48.5692000000
H	  25.2215000000	  38.8700000000	  47.0975000000
H	  25.4974000000	  31.8541000000	  43.2889000000
H	  26.1066000000	  33.2141000000	  43.7534000000
H	  26.2631000000	  31.8450000000	  44.9307000000
H	  25.4000000000	  41.7783000000	  47.3693000000
H	  25.2231000000	  40.9376000000	  45.6780000000
H	  24.0983000000	  42.1948000000	  46.2516000000
N	  27.7462000000	  35.0708000000	  48.7653000000
S	  27.0883000000	  35.3529000000	  47.3828000000
O	  26.2251000000	  34.2128000000	  47.0236000000
O	  26.6861000000	  36.6960000000	  47.1823000000
C	  28.4017000000	  35.1194000000	  46.2343000000
F	  28.1062000000	  35.2571000000	  44.9382000000
F	  28.8856000000	  33.8644000000	  46.3965000000
F	  29.4405000000	  35.9648000000	  46.5839000000
S	  27.2186000000	  35.5083000000	  50.2079000000
O	  27.7959000000	  34.6175000000	  51.2396000000
O	  25.8270000000	  35.8777000000	  50.2542000000
C	  28.0793000000	  36.9982000000	  50.6326000000
F	  29.3103000000	  36.7290000000	  50.9119000000
F	  28.0530000000	  37.9823000000	  49.7466000000
F	  27.5566000000	  37.5469000000	  51.6873000000
