61

Li	  21.1288000000	  52.7997000000	  37.9561000000
O	  21.1265000000	  51.2285000000	  39.3846000000
O	  19.8511000000	  53.4968000000	  39.0169000000
O	  20.8845000000	  48.6111000000	  38.3222000000
O	  20.6135000000	  54.5683000000	  36.5970000000
C	  20.3473000000	  51.6299000000	  40.5023000000
C	  19.2578000000	  52.5030000000	  39.9251000000
C	  22.0451000000	  50.1913000000	  39.6345000000
C	  18.8719000000	  54.0552000000	  38.1587000000
C	  21.3995000000	  48.7776000000	  39.6976000000
C	  19.5925000000	  55.1790000000	  37.4141000000
C	  19.6478000000	  47.8855000000	  38.2578000000
C	  20.9243000000	  55.3883000000	  35.4316000000
H	  19.8368000000	  50.8104000000	  40.9682000000
H	  20.9001000000	  52.0675000000	  41.3008000000
H	  18.4944000000	  51.8748000000	  39.4691000000
H	  18.7797000000	  53.0384000000	  40.6867000000
H	  22.8062000000	  50.2172000000	  38.8908000000
H	  22.3710000000	  50.3945000000	  40.6549000000
H	  18.3622000000	  53.3996000000	  37.4381000000
H	  18.1329000000	  54.4838000000	  38.7154000000
H	  22.1316000000	  47.9861000000	  39.8495000000
H	  20.5453000000	  48.6961000000	  40.2729000000
H	  18.8546000000	  55.7884000000	  36.8782000000
H	  20.0742000000	  55.7864000000	  38.1461000000
H	  18.9185000000	  48.5181000000	  38.6659000000
H	  19.4706000000	  47.5081000000	  37.2766000000
H	  19.6490000000	  47.0246000000	  38.9319000000
H	  21.5681000000	  54.7928000000	  34.7265000000
H	  20.0357000000	  55.6297000000	  34.9033000000
H	  21.4867000000	  56.2420000000	  35.7834000000
O	  22.8199000000	  52.2641000000	  37.1065000000
O	  20.3253000000	  51.5294000000	  36.6304000000
O	  22.8360000000	  53.9470000000	  39.0802000000
O	  18.5721000000	  51.4350000000	  33.8348000000
C	  22.5541000000	  51.9628000000	  35.7501000000
C	  21.3141000000	  51.0861000000	  35.6787000000
C	  23.8976000000	  53.1168000000	  37.1922000000
C	  19.0283000000	  50.9130000000	  36.3130000000
C	  24.1127000000	  53.5043000000	  38.6345000000
C	  18.2159000000	  51.6781000000	  35.1592000000
C	  22.8594000000	  54.4281000000	  40.4284000000
C	  18.2737000000	  50.1186000000	  33.3990000000
H	  22.2983000000	  52.8899000000	  35.2637000000
H	  23.3531000000	  51.5317000000	  35.2106000000
H	  20.8105000000	  50.9244000000	  34.7594000000
H	  21.5350000000	  50.0557000000	  35.9472000000
H	  24.8104000000	  52.7587000000	  36.7675000000
H	  23.6067000000	  54.0594000000	  36.7586000000
H	  19.0704000000	  49.8590000000	  36.1665000000
H	  18.2447000000	  51.0303000000	  37.1741000000
H	  24.4651000000	  52.5730000000	  39.1507000000
H	  24.8802000000	  54.3066000000	  38.7802000000
H	  17.1308000000	  51.6103000000	  35.3081000000
H	  18.3241000000	  52.7531000000	  35.3290000000
H	  21.9428000000	  54.9289000000	  40.6534000000
H	  22.9364000000	  53.6349000000	  41.0710000000
H	  23.6092000000	  55.1085000000	  40.5111000000
H	  18.8702000000	  49.4197000000	  34.0461000000
H	  17.2721000000	  49.7967000000	  33.5989000000
H	  18.6159000000	  50.0680000000	  32.3526000000
