69

Li	   5.8739500000	   6.8112900000	   7.6443700000
O	   6.2833200000	   3.0728200000	   6.2373700000
O	   6.7895000000	   1.4470200000	   4.1646500000
O	   5.7438400000	   5.0623300000	   8.6577100000
O	   6.1848400000	   1.0183300000	   1.4740700000
C	   6.6753200000	   1.7381500000	   6.5228100000
C	   7.5143200000	   1.1714200000	   5.3075100000
C	   5.1291900000	   3.4666800000	   6.8523600000
C	   7.6423000000	   1.9253700000	   3.0978700000
C	   5.3339700000	   3.7492800000	   8.3284300000
C	   6.7397700000	   2.1704600000	   1.9279200000
C	   5.9795300000	   5.2131400000	  10.0424000000
C	   5.0378100000	   1.0919800000	   0.5809594662
H	   7.2414600000	   1.6480100000	   7.3926500000
H	   5.8165700000	   1.1055400000	   6.5744500000
H	   8.4162400000	   1.7367900000	   5.3124500000
H	   7.6888100000	   0.0878150900	   5.4461500000
H	   4.8242500000	   4.4234500000	   6.4197800000
H	   4.3925900000	   2.6535600000	   6.7785400000
H	   8.2058800000	   2.8090300000	   3.3745100000
H	   8.3946500000	   1.1554200000	   2.8882200000
H	   4.4204000000	   3.5310100000	   8.8001800000
H	   5.9758300000	   2.9627300000	   8.6871700000
H	   5.9530800000	   2.9155700000	   2.2380900000
H	   7.3281500000	   2.6706800000	   1.1993600000
H	   6.4055600000	   6.2003100000	  10.3366000000
H	   5.0037900000	   5.1196000000	  10.5147000000
H	   6.6582500000	   4.4899100000	  10.4022000000
H	   4.6808800000	   2.1502100000	   0.6542594662
H	   5.1799700000	   0.7790150900	  -0.4312405338
H	   4.2368000000	   0.4404150900	   1.1020500000
O	   6.7063200000	   8.2443100000	   8.4543100000
O	   9.2018100000	   6.6502400000	   8.2853300000
O	   4.2300700000	   7.4881400000	   8.0814100000
O	   9.9126200000	   4.3482800000	   9.4120600000
C	   8.0574900000	   8.6910600000	   8.6487200000
C	   8.9787200000	   7.9143500000	   7.6792100000
C	   5.7413100000	   9.1836600000	   8.9773700000
C	   9.3386700000	   5.5270500000	   7.4151400000
C	   4.4204900000	   8.4787300000	   9.1678000000
C	   9.2695000000	   4.2082000000	   8.1705300000
C	   2.9952400000	   6.7584300000	   8.3338200000
C	   9.8642100000	   3.2056400000	  10.2353000000
H	   8.0941700000	   9.7066900000	   8.6837000000
H	   8.3544500000	   8.4394100000	   9.7016400000
H	   8.4450400000	   7.7249000000	   6.7647700000
H	   9.9087900000	   8.4102100000	   7.5861200000
H	   6.0644600000	   9.7355100000	   9.8617300000
H	   5.6460000000	  10.0450000000	   8.2978100000
H	   8.6319800000	   5.5413800000	   6.5476700000
H	  10.3564000000	   5.6631600000	   6.9056700000
H	   4.2887600000	   7.9702400000	  10.1277000000
H	   3.5581100000	   9.1040700000	   9.0681000000
H	   8.1821000000	   4.0087100000	   8.3923000000
H	   9.7405100000	   3.3610700000	   7.6656500000
H	   2.9469600000	   5.8670800000	   7.7486000000
H	   3.0171300000	   6.4703600000	   9.3262600000
H	   2.0670200000	   7.2299500000	   8.1401100000
H	   9.0329700000	   2.5972800000	   9.9304500000
H	  10.8124000000	   2.6556100000	  10.1525000000
H	   9.6951500000	   3.7315800000	  11.2362000000
S	  12.1942000000	   6.5605000000	   8.8075200000
S	  13.6165000000	   7.3236200000	   7.3326800000
S	  13.7702000000	   6.2055000000	   5.5089300000
S	   8.9356000000	   6.8629600000	   3.3792500000
S	   7.2533000000	   5.8400300000	   3.9274400000
S	   6.0558700000	   6.9069900000	   5.3691300000
S	  10.8045000000	   5.8321600000	   3.7830300000
S	  12.4918000000	   7.0711100000	   4.0033000000
