54

Li	   3.7126100000	   8.6326400000	   2.3104500000
O	   4.2623300000	  10.1865000000	   1.3087700000
O	   5.5448400000	  12.3845000000	   3.3975300000
O	   2.1765800000	   8.4244200000	   1.3614700000
O	   5.0145400000	  13.8908000000	   5.8109700000
C	   5.3512100000	  11.1946000000	   1.2996100000
C	   6.0842000000	  11.2692000000	   2.6451600000
C	   3.6756800000	   9.9109500000	   0.0514594662
C	   4.2737400000	  12.2828000000	   4.0707100000
C	   2.2511500000	   9.3908400000	   0.3447594662
C	   3.9818600000	  13.5742000000	   4.8535800000
C	   0.8398171739	   7.9892000000	   1.6875200000
C	   4.6544800000	  13.2983000000	   7.0503500000
H	   5.9768900000	  10.7119000000	   0.6380594662
H	   5.1646300000	  12.1642000000	   0.7953594662
H	   6.1117200000	  10.3772000000	   3.2997000000
H	   7.1989700000	  11.3489000000	   2.5039800000
H	   3.5362500000	  10.8223000000	  -0.5483405338
H	   4.1849800000	   9.0752000000	  -0.5552405338
H	   3.4083500000	  12.1365000000	   3.3828000000
H	   4.2735300000	  11.3510000000	   4.6931800000
H	   1.6703900000	  10.2374000000	   0.5925594662
H	   1.7669200000	   8.9662200000	  -0.5624405338
H	   3.8406300000	  14.3980000000	   4.1704500000
H	   2.9667500000	  13.6389000000	   5.3391100000
H	   0.1692171739	   7.7610600000	   0.8775250000
H	   1.0344100000	   7.0983600000	   2.3300200000
H	   0.1957171739	   8.5834900000	   2.3381400000
H	   5.3512600000	  13.6203000000	   7.8652200000
H	   3.6927500000	  13.5342000000	   7.2985000000
H	   4.7537200000	  12.1972000000	   6.9679600000
N	   0.7086171739	   8.4879200000	   5.3009200000
S	   1.6550900000	   9.7634700000	   5.0455300000
O	   2.3651500000	  10.2485000000	   6.1791100000
O	   2.4411900000	   9.6531000000	   3.8213000000
C	   0.4294171739	  11.0853000000	   4.6507400000
F	  -0.3229828261	  10.7174000000	   3.6741500000
F	   1.0133300000	  12.1932000000	   4.3348700000
F	  -0.3580828261	  11.4024000000	   5.7040500000
S	   0.6005171739	   7.6258800000	   6.5744100000
O	  -0.6589828261	   7.8880400000	   7.2732100000
O	   1.8357600000	   7.4967400000	   7.3426400000
C	   0.2607171739	   5.9405700000	   5.8856800000
F	  -0.6904828261	   5.9705400000	   5.0132600000
F	   1.2651000000	   5.5685200000	   5.1761300000
F	  -0.0038828261	   4.9524400000	   6.7555800000
S	   9.6079500000	   8.4746800000	  11.7234000000
S	   9.5769100000	   7.2325300000	   9.9285200000
S	   9.8870000000	   8.3071700000	   8.2146300000
S	   5.2705100000	   8.4943500000	   5.2090700000
S	   4.3399800000	   7.0548800000	   4.0483100000
S	   4.9738200000	   6.8892500000	   2.0763600000
S	   7.1163900000	   7.8358500000	   5.8889700000
S	   8.1003600000	   9.0884900000	   7.3245100000
