31

Li	  53.5521000000	  45.3093000000	  45.7199000000
O	  52.9616000000	  45.5780000000	  47.4892000000
O	  54.9848000000	  46.6132000000	  46.2293000000
O	  52.9128000000	  43.5169000000	  45.8873000000
O	  54.4667000000	  45.5605000000	  43.6678000000
C	  53.8883000000	  46.4018000000	  48.2380000000
C	  54.4160000000	  47.3896000000	  47.2248000000
C	  52.7272000000	  44.2808000000	  48.0860000000
C	  55.2942000000	  47.3433000000	  45.0627000000
C	  52.0918000000	  43.4080000000	  47.0302000000
C	  55.5630000000	  46.4006000000	  43.9052000000
C	  52.6262000000	  42.4508000000	  44.9618000000
C	  54.6744000000	  44.7040000000	  42.5340000000
H	  53.3418000000	  46.8110000000	  49.0762000000
H	  54.6997000000	  45.8428000000	  48.6939000000
H	  53.5263000000	  48.0364000000	  47.0032000000
H	  55.1423000000	  48.1243000000	  47.6303000000
H	  53.7031000000	  43.9635000000	  48.4126000000
H	  52.1782000000	  44.2959000000	  49.0173000000
H	  54.4249000000	  47.9779000000	  44.7826000000
H	  56.1406000000	  48.0436000000	  45.2243000000
H	  52.0284000000	  42.3524000000	  47.3696000000
H	  51.0678000000	  43.6471000000	  46.7860000000
H	  55.7335000000	  47.0211000000	  43.0460000000
H	  56.4812000000	  45.8068000000	  43.9475000000
H	  51.7162000000	  42.6521000000	  44.4145000000
H	  53.4072000000	  42.3950000000	  44.1718000000
H	  52.5410000000	  41.4633000000	  45.3299000000
H	  54.0099000000	  43.8898000000	  42.6249000000
H	  54.4871000000	  45.3446000000	  41.6895000000
H	  55.6964000000	  44.3116000000	  42.5183000000
