61

Li	  53.9678000000	  47.3746000000	  44.7654000000
O	  53.6988000000	  46.9900000000	  46.8778000000
O	  53.7512000000	  46.1712000000	  49.7493000000
O	  52.9061000000	  45.7642000000	  44.6103000000
O	  51.7124000000	  44.0791000000	  50.0364000000
C	  54.5098000000	  47.5749000000	  47.9734000000
C	  53.7312000000	  47.5345000000	  49.3020000000
C	  53.5676000000	  45.5875000000	  46.9503000000
C	  52.9447000000	  45.9943000000	  50.9363000000
C	  52.6127000000	  45.1549000000	  45.8472000000
C	  52.6326000000	  44.4887000000	  51.0436000000
C	  52.3332000000	  44.9492000000	  43.6068000000
C	  51.6545000000	  42.6878000000	  49.8886000000
H	  55.4935000000	  47.0688000000	  47.9536000000
H	  54.8518000000	  48.6081000000	  47.6423000000
H	  54.1274000000	  48.2191000000	  50.0500000000
H	  52.7128000000	  47.8827000000	  49.1584000000
H	  54.4992000000	  45.0590000000	  46.9103000000
H	  53.0665000000	  45.1966000000	  47.8600000000
H	  53.5932000000	  46.4476000000	  51.7085000000
H	  52.0261000000	  46.5984000000	  50.9014000000
H	  52.5721000000	  44.1034000000	  45.8472000000
H	  51.6318000000	  45.5249000000	  46.1224000000
H	  53.6168000000	  44.0227000000	  51.0309000000
H	  52.2249000000	  44.3453000000	  52.0031000000
H	  52.5247000000	  45.3451000000	  42.6010000000
H	  52.6767000000	  43.9629000000	  43.6036000000
H	  51.2749000000	  44.8949000000	  43.6955000000
H	  52.6527000000	  42.4046000000	  49.5582000000
H	  51.3835000000	  42.2357000000	  50.8244000000
H	  50.9048000000	  42.4336000000	  49.1755000000
O	  54.9026000000	  48.8350000000	  45.0764000000
O	  55.9212000000	  46.3190000000	  44.7826000000
O	  52.4113000000	  48.6520000000	  44.1172000000
O	  54.5390000000	  47.1118000000	  42.5596000000
C	  56.2254000000	  48.7868000000	  44.5170000000
C	  56.7691000000	  47.4575000000	  44.9816000000
C	  54.2265000000	  50.0111000000	  44.6274000000
C	  56.2603000000	  45.6702000000	  43.5561000000
C	  52.7419000000	  49.7892000000	  44.8499000000
C	  55.8163000000	  46.4818000000	  42.3907000000
C	  51.0544000000	  48.2272000000	  44.2547000000
C	  54.0362000000	  47.5071000000	  41.3025000000
H	  56.1771000000	  48.9926000000	  43.4409000000
H	  56.8008000000	  49.6417000000	  44.8859000000
H	  57.7953000000	  47.4538000000	  44.6341000000
H	  56.8512000000	  47.3818000000	  46.0730000000
H	  54.6352000000	  50.7814000000	  45.3316000000
H	  54.4261000000	  50.2746000000	  43.6194000000
H	  57.2881000000	  45.5246000000	  43.5382000000
H	  55.8692000000	  44.7628000000	  43.7013000000
H	  52.4827000000	  49.6938000000	  45.9296000000
H	  52.1853000000	  50.6502000000	  44.5694000000
H	  56.5106000000	  47.3246000000	  42.2596000000
H	  55.9624000000	  45.7979000000	  41.5367000000
H	  50.8353000000	  47.8204000000	  45.2065000000
H	  50.3046000000	  49.0157000000	  44.1990000000
H	  50.7736000000	  47.4687000000	  43.5920000000
H	  54.7402000000	  48.1214000000	  40.7698000000
H	  53.8204000000	  46.7915000000	  40.5285000000
H	  53.2444000000	  48.2114000000	  41.3692000000
