39

Li	  44.7162000000	  41.9371000000	  42.2025000000
O	  46.4752000000	  41.6141000000	  41.9549000000
O	  44.6523000000	  39.6907000000	  41.1183000000
O	  44.9372000000	  42.5408000000	  44.2371000000
O	  42.2191000000	  40.3561000000	  41.7876000000
C	  46.8652000000	  40.6658000000	  40.9822000000
C	  46.0780000000	  39.3366000000	  41.2729000000
C	  47.0022000000	  41.5098000000	  43.2911000000
C	  43.6184000000	  38.7612000000	  41.2852000000
C	  46.3684000000	  42.6623000000	  44.2238000000
C	  42.3353000000	  39.3213000000	  40.8059000000
C	  44.2245000000	  43.3872000000	  45.1783000000
C	  40.9069000000	  40.9589000000	  41.8410000000
H	  46.5707000000	  41.0795000000	  39.9904000000
H	  47.9843000000	  40.5401000000	  40.9957000000
H	  46.3771000000	  38.5933000000	  40.5117000000
H	  46.2365000000	  38.9658000000	  42.2581000000
H	  46.7148000000	  40.5811000000	  43.7601000000
H	  48.1289000000	  41.5426000000	  43.3654000000
H	  43.9626000000	  37.9306000000	  40.6942000000
H	  43.5882000000	  38.4658000000	  42.3614000000
H	  46.6861000000	  42.7002000000	  45.2748000000
H	  46.6770000000	  43.7075000000	  43.9381000000
H	  42.3147000000	  39.6120000000	  39.7759000000
H	  41.4141000000	  38.6224000000	  40.9618000000
H	  44.2839000000	  43.1257000000	  46.2811000000
H	  44.6980000000	  44.3390000000	  45.0504000000
H	  43.1451000000	  43.4597000000	  45.0159000000
H	  40.8285000000	  41.7707000000	  42.6034000000
H	  40.5989000000	  41.3691000000	  40.8836000000
H	  40.1606000000	  40.2328000000	  42.0259000000
S	  43.4005000000	  43.4009000000	  41.2342000000
S	  45.0081000000	  44.6418000000	  41.4352000000
S	  46.5041000000	  44.6054000000	  39.8804000000
S	  51.5015000000	  46.2071000000	  38.8699000000
S	  52.6251000000	  47.4726000000	  40.0589000000
S	  53.7371000000	  48.8957000000	  38.9150000000
S	  49.4378000000	  46.5680000000	  39.0937000000
S	  48.4335000000	  45.3156000000	  40.4100000000
