61

Li	  52.5789000000	  56.4118000000	  52.6705000000
O	  49.6062000000	  56.8131000000	  50.6809000000
O	  47.5333000000	  55.4610000000	  52.0688000000
O	  52.7335000000	  56.3628000000	  50.7177000000
O	  46.9833000000	  53.5327000000	  49.9924000000
C	  48.4463000000	  57.5041000000	  51.1435000000
C	  47.2867000000	  56.4731000000	  51.0779000000
C	  50.6459000000	  57.5870000000	  50.2371000000
C	  46.5234000000	  54.4800000000	  52.2494000000
C	  51.8836000000	  56.7823000000	  49.7300000000
C	  46.8528000000	  53.2318000000	  51.3561000000
C	  54.0301000000	  55.9671000000	  50.3761000000
C	  46.8215000000	  52.3080000000	  49.2262000000
H	  48.6404000000	  57.8590000000	  52.1632000000
H	  48.0926000000	  58.3505000000	  50.4654000000
H	  46.3313000000	  56.9900000000	  51.2595000000
H	  47.2718000000	  56.0204000000	  50.1137000000
H	  50.2719000000	  58.1699000000	  49.3649000000
H	  50.9335000000	  58.2445000000	  51.0248000000
H	  46.5507000000	  54.1158000000	  53.3039000000
H	  45.5407000000	  54.9408000000	  52.0348000000
H	  51.5953000000	  55.9530000000	  49.1041000000
H	  52.4835000000	  57.3997000000	  49.0456000000
H	  47.7995000000	  52.8174000000	  51.7039000000
H	  46.0322000000	  52.4863000000	  51.5807000000
H	  54.5298000000	  55.5089000000	  51.2005000000
H	  53.9188000000	  55.3620000000	  49.5027000000
H	  54.5318000000	  57.0109000000	  50.2585000000
H	  47.0698000000	  52.5816000000	  48.1989000000
H	  47.5267000000	  51.5307000000	  49.7148000000
H	  45.7548000000	  52.0057000000	  49.1598000000
O	  50.9544000000	  56.6904000000	  53.8285000000
O	  51.5243000000	  54.3686000000	  53.2687000000
O	  53.0398000000	  58.2054000000	  53.4324000000
O	  53.8196000000	  55.3970000000	  53.7762000000
C	  49.8278000000	  55.9020000000	  54.0115000000
C	  50.1083000000	  54.5944000000	  53.2604000000
C	  50.7840000000	  57.9328000000	  54.4682000000
C	  52.1161000000	  53.9989000000	  54.5400000000
C	  51.9336000000	  58.8791000000	  54.0629000000
C	  53.5988000000	  54.0857000000	  54.2381000000
C	  53.7709000000	  59.0581000000	  52.5720000000
C	  55.2932000000	  55.6342000000	  53.7158000000
H	  49.7383000000	  55.6056000000	  55.1144000000
H	  48.9139000000	  56.3470000000	  53.6482000000
H	  49.5026000000	  53.7725000000	  53.6397000000
H	  49.8928000000	  54.6616000000	  52.2353000000
H	  49.8489000000	  58.5129000000	  54.2931000000
H	  50.8261000000	  57.7522000000	  55.5635000000
H	  51.8705000000	  54.6059000000	  55.4243000000
H	  51.7969000000	  53.0277000000	  54.8009000000
H	  51.4807000000	  59.7030849100	  53.4557000000
H	  52.3036000000	  59.4171949100	  54.9188000000
H	  54.2179000000	  53.8085000000	  55.1126000000
H	  53.9218000000	  53.3773000000	  53.4485000000
H	  54.0862000000	  59.9222749100	  53.1137000000
H	  54.6309000000	  58.4853000000	  52.1558000000
H	  53.1078000000	  59.4028949100	  51.7597000000
H	  55.8601000000	  55.1708000000	  52.8813000000
H	  55.6057000000	  56.6923000000	  53.7797000000
H	  55.7647000000	  55.2610000000	  54.5656000000
