39

Li	  57.2479000000	  19.8031000000	  15.4753000000
O	  55.1043000000	  19.6036000000	  15.9017000000
O	  57.0483000000	  21.1625000000	  16.8377000000
O	  56.0209000000	  20.1525000000	  13.4289000000
O	  58.7716000000	  20.9414000000	  14.8819000000
C	  54.9667000000	  20.1310000000	  17.2121000000
C	  55.7963000000	  21.3834000000	  17.4230000000
C	  54.1287000000	  20.1161000000	  14.9821000000
C	  57.8077000000	  22.2860000000	  16.4965000000
C	  54.6938000000	  19.6875000000	  13.6312000000
C	  59.1072000000	  21.9086000000	  15.8167000000
C	  56.4446000000	  19.8773000000	  12.0509000000
C	  59.8937728261	  20.4560000000	  14.1758000000
H	  54.0132000000	  20.4131000000	  17.5917000000
H	  55.3627000000	  19.3783000000	  17.9227000000
H	  55.3252000000	  22.2102000000	  16.9361000000
H	  55.9938000000	  21.6288000000	  18.4888000000
H	  53.1752000000	  19.6385000000	  15.0671000000
H	  53.9981000000	  21.1888000000	  15.1586000000
H	  57.1506000000	  22.9835000000	  15.9496000000
H	  58.0125000000	  22.8586000000	  17.3911000000
H	  54.6982000000	  18.6165000000	  13.4829000000
H	  54.0441000000	  20.1063000000	  12.8655000000
H	  59.5284528261	  22.7914000000	  15.2914000000
H	  59.8290428261	  21.4937000000	  16.5640000000
H	  57.5869000000	  19.9610000000	  11.9922000000
H	  56.0924000000	  18.9868000000	  11.6525000000
H	  56.0365000000	  20.6940000000	  11.3792000000
H	  60.7486628261	  20.2764000000	  14.8507000000
H	  59.4861428261	  19.6127000000	  13.5984000000
H	  60.2519728261	  21.2403000000	  13.5255000000
S	  53.3494000000	   9.9272200000	  12.2996000000
S	  54.8633000000	  10.8920000000	  11.1716000000
S	  56.5479000000	  11.5186000000	  12.2276000000
S	  56.6675000000	  15.4778000000	  15.5182000000
S	  57.1913000000	  17.4767000000	  14.9850000000
S	  58.5038000000	  18.3130000000	  16.4772000000
S	  57.6638000000	  14.0010000000	  14.3966000000
S	  56.7733000000	  13.5048000000	  12.5820000000
