28

Li	  24.9050000000	  19.1740000000	  52.0882000000
O	  28.4027000000	  19.8840000000	  54.0161000000
O	  26.3153000000	  19.0028000000	  53.3850000000
C	  27.6189000000	  19.9768000000	  55.1016000000
C	  26.2984000000	  19.1737000000	  54.7558000000
C	  27.7144000000	  19.1857000000	  53.0691000000
H	  28.1095000000	  19.5702000000	  56.0109000000
H	  27.2505000000	  21.0108000000	  55.3072000000
H	  26.3796000000	  18.2177000000	  55.3181000000
H	  25.4370000000	  19.7372000000	  54.9963000000
H	  27.9520000000	  19.7629000000	  52.1705000000
H	  28.2242000000	  18.2290000000	  52.9789000000
S	  18.3248000000	  24.9279000000	  44.5455000000
S	  20.0999000000	  24.3850000000	  45.4647000000
S	  20.4800000000	  22.3122000000	  45.3215000000
S	  21.9169000000	  19.6809000000	  49.8062000000
S	  22.3573000000	  21.1006000000	  51.1992000000
S	  24.0656000000	  20.9805000000	  52.4706000000
S	  22.0658000000	  20.4631000000	  47.8616000000
S	  20.3861000000	  21.5257000000	  47.2397000000
S	  23.2493000000	  13.4016000000	  60.6054905338
S	  24.7241000000	  13.9432000000	  59.1452000000
S	  24.3947000000	  15.8670000000	  58.1878000000
S	  23.5282000000	  17.0382000000	  52.9848000000
S	  24.2885000000	  16.6108000000	  51.1001000000
S	  25.1732000000	  18.2766000000	  50.1446000000
S	  24.5904000000	  16.2212000000	  54.6523000000
S	  23.4012000000	  15.7205000000	  56.2577000000
