50

Li	  33.3080000000	  54.4843000000	  55.5359000000
O	  36.9311000000	  53.3932000000	  56.6714000000
O	  34.7786000000	  53.7518000000	  56.1087000000
C	  36.4502000000	  52.0930000000	  56.7278000000
C	  35.0114000000	  52.3346000000	  56.0435000000
C	  35.8088000000	  54.2139000000	  56.8876000000
H	  37.1325000000	  51.4317000000	  56.2182000000
H	  36.3528000000	  51.8193000000	  57.7320000000
H	  34.8181000000	  52.0643000000	  55.0257000000
H	  34.2369000000	  51.7383000000	  56.5547000000
H	  35.5842000000	  54.0468000000	  57.9680000000
H	  36.0884000000	  55.2886000000	  56.6982000000
O	  34.0252000000	  56.1884000000	  55.2035000000
O	  34.6866000000	  54.7334000000	  52.8011000000
O	  32.7557000000	  55.1491000000	  57.2314000000
O	  34.2564000000	  53.3700000000	  49.8579000000
C	  34.4967000000	  56.7663000000	  53.9685000000
C	  35.5260000000	  55.8246000000	  53.3030000000
C	  33.3209000000	  57.1757000000	  55.9699000000
C	  35.4605000000	  53.8442000000	  51.9491000000
C	  33.0548000000	  56.6246000000	  57.3591000000
C	  34.6139000000	  52.8746000000	  51.1688000000
C	  32.3785000000	  54.6075000000	  58.4252000000
C	  33.5095000000	  54.5257000000	  50.0059000000
H	  33.7350000000	  56.9329000000	  53.2199000000
H	  35.0577000000	  57.7623000000	  54.0572000000
H	  35.9699000000	  56.3896000000	  52.4937000000
H	  36.3219000000	  55.6596000000	  53.9904000000
H	  33.9108000000	  58.0540000000	  56.1203000000
H	  32.3617000000	  57.3482000000	  55.4300000000
H	  36.0733000000	  54.3592000000	  51.2277000000
H	  36.1400000000	  53.2729000000	  52.5797000000
H	  33.9735000000	  56.8012000000	  57.8196000000
H	  32.2334000000	  57.1626000000	  57.8434000000
H	  35.3029000000	  52.0437000000	  50.9921000000
H	  33.8051000000	  52.4506000000	  51.7660000000
H	  33.3259000000	  54.6168000000	  59.0009000000
H	  31.6524000000	  55.2068000000	  58.9293000000
H	  32.1315000000	  53.5542000000	  58.4367000000
H	  32.8852000000	  54.6896000000	  49.1482000000
H	  32.8831000000	  54.4867000000	  50.8979000000
H	  34.0929000000	  55.4652000000	  50.0392000000
S	  31.7192000000	  53.0954000000	  55.2803000000
S	  31.3460000000	  54.7947000000	  54.1321000000
S	  29.7359000000	  56.0087000000	  54.7848000000
S	  28.9399000000	  55.8350000000	  59.4691805338
S	  27.6006000000	  56.1112000000	  61.1042305338
S	  28.3343000000	  55.5438000000	  63.0814605338
S	  28.1478000000	  56.8588000000	  57.7306000000
S	  29.7985000000	  57.2995000000	  56.4553000000
