39

Li	  16.9454000000	  19.9240000000	  44.6072000000
O	  15.8957000000	  19.3438000000	  43.2405000000
O	  17.5936000000	  18.0958000000	  44.5664000000
O	  15.5282000000	  21.1731000000	  44.9957000000
O	  18.1088000000	  19.5154000000	  46.7662000000
C	  16.1417000000	  18.0624000000	  42.7285000000
C	  16.8200000000	  17.1821000000	  43.8160000000
C	  14.5758000000	  19.4839000000	  43.7614000000
C	  18.1749000000	  17.4876000000	  45.6938000000
C	  14.4285000000	  20.9213000000	  44.1660000000
C	  19.0165000000	  18.5166000000	  46.3489000000
C	  15.4365000000	  22.4514000000	  45.5141000000
C	  18.4854000000	  20.3241000000	  47.8425000000
H	  15.1328000000	  17.6195000000	  42.4164000000
H	  16.8153000000	  18.2239000000	  41.8330000000
H	  16.1107000000	  16.7005000000	  44.5119000000
H	  17.4315000000	  16.3930000000	  43.3890000000
H	  13.8774000000	  19.3139000000	  42.9105000000
H	  14.3718000000	  18.8312000000	  44.6941000000
H	  17.4940000000	  16.9314000000	  46.3140000000
H	  18.8562000000	  16.8538000000	  45.2517000000
H	  14.6455000000	  21.5813000000	  43.3125000000
H	  13.5296000000	  21.0662000000	  44.7135000000
H	  19.4283000000	  18.1796000000	  47.2894000000
H	  19.8794000000	  18.9406000000	  45.7367000000
H	  14.4638000000	  22.6129000000	  45.9776000000
H	  16.2968000000	  22.5283000000	  46.1823000000
H	  15.5653000000	  23.1947000000	  44.7316000000
H	  18.5698000000	  19.7061000000	  48.6943000000
H	  19.4275000000	  20.7823000000	  47.5949000000
H	  17.6935000000	  21.1109000000	  47.9622000000
S	  18.3665000000	  21.0985000000	  43.4651000000
S	  18.7149000000	  22.7140000000	  44.8079000000
S	  20.8202000000	  23.2863000000	  44.6861000000
S	  20.6383000000	  22.4154000000	  49.0638000000
S	  20.3602000000	  23.6063000000	  50.7919000000
S	  20.9562000000	  22.7077000000	  52.6352000000
S	  22.1767000000	  23.0726000000	  47.8558000000
S	  21.4453000000	  24.3480000000	  46.3773000000
