57

Li	  27.0752000000	   2.7696700000	   3.3805900000
O	  26.2697000000	   1.1875100000	   2.9976300000
O	  24.5905000000	   0.1552612417	   1.9959200000
C	  25.7412000000	   0.3501612417	   3.9961300000
C	  24.4405000000	  -0.2624387583	   3.3484200000
C	  25.8114000000	   0.7376612417	   1.7889400000
H	  26.4122000000	  -0.5101387583	   4.0730900000
H	  25.5774000000	   0.7963612417	   4.9534900000
H	  24.2542000000	  -1.3560387583	   3.4054400000
H	  23.5586000000	   0.2719612417	   3.7531700000
H	  25.5926000000	   1.5536100000	   1.1108300000
H	  26.4036000000	  -0.0460387583	   1.3358200000
O	  29.8124000000	   6.1864400000	   2.8884000000
O	  30.2845000000	   5.0442100000	   4.7749900000
C	  31.1950000000	   6.0402300000	   2.9308200000
C	  31.4593000000	   5.6726300000	   4.3223900000
C	  29.2916000000	   5.3884400000	   3.9323300000
H	  31.4896000000	   5.1957300000	   2.2404400000
H	  31.6395000000	   6.9624800000	   2.5310000000
H	  32.3504000000	   4.9367400000	   4.3702200000
H	  31.7570000000	   6.5742300000	   4.9010600000
H	  28.5938000000	   5.9515500000	   4.5351400000
H	  28.7469000000	   4.5712200000	   3.4441100000
O	  29.0123000000	   2.2113200000	   2.6509600000
O	  30.5323000000	   0.7221612417	   1.9510700000
C	  29.3485000000	   2.5147000000	   1.3214200000
C	  30.7013000000	   1.8307300000	   1.1357800000
C	  29.9856000000	   1.3706600000	   3.0553000000
H	  28.6269000000	   2.0771300000	   0.6654311412
H	  29.2780000000	   3.5550800000	   1.2145200000
H	  30.8650000000	   1.6744000000	   0.0930311412
H	  31.5389000000	   2.5070100000	   1.4921400000
H	  30.8073000000	   1.9639900000	   3.5283100000
H	  29.6713000000	   0.7041612417	   3.8171600000
N	  26.8668000000	   0.8813612417	   7.2455200000
S	  27.5409000000	   2.2561000000	   6.7560600000
O	  27.4134000000	   2.5841600000	   5.3917100000
O	  27.3239000000	   3.3883500000	   7.5813600000
C	  29.2871000000	   1.7369200000	   6.9977600000
F	  30.1724000000	   2.6094600000	   6.5330300000
F	  29.5051000000	   0.5769612417	   6.4245300000
F	  29.5639000000	   1.4998700000	   8.2836600000
S	  25.8463000000	   0.6390612417	   8.4700700000
O	  25.1335000000	   1.8075300000	   8.9282800000
O	  26.4475000000	  -0.2187387583	   9.4632900000
C	  24.5771000000	  -0.4306387583	   7.7196700000
F	  23.7084000000	  -0.7397387583	   8.5831100000
F	  23.9649000000	   0.1499612417	   6.6900200000
F	  25.0519000000	  -1.5419387583	   7.2976100000
S	  22.7334000000	  -0.5526387583	  -4.7344688588
S	  24.2136000000	   0.9367612417	  -4.5847688588
S	  26.0701000000	   0.1433612417	  -3.8445688588
S	  26.3329000000	   4.1935000000	  -1.3209688588
S	  27.0027000000	   5.1377700000	   0.4098311412
S	  26.2658000000	   4.1635500000	   2.2175700000
S	  27.5395000000	   2.5944100000	  -2.0576688588
S	  26.5709000000	   0.7840612417	  -1.9262688588
