68

Li	  14.2724000000	  34.9510000000	  23.0465000000
O	  13.9833000000	  39.0504000000	  21.4030000000
O	  14.3081000000	  36.8167000000	  21.7970000000
C	  14.5673000000	  38.4910000000	  20.2913000000
C	  15.2604000000	  37.2581000000	  20.8282000000
C	  13.5376000000	  38.0049000000	  22.1438000000
H	  13.7382000000	  38.1549000000	  19.6125000000
H	  15.3418000000	  39.1915000000	  19.9125000000
H	  15.4936000000	  36.3774000000	  20.0896000000
H	  16.2614000000	  37.4936000000	  21.2786000000
H	  13.6152000000	  38.3793000000	  23.1375000000
H	  12.5278000000	  37.8943000000	  21.9241000000
O	  15.8676000000	  35.7291000000	  23.8701000000
C	  16.0822000000	  36.5888000000	  25.0630000000
C	  16.6381000000	  37.9817000000	  24.7518000000
C	  14.7186000000	  36.6644000000	  25.7308000000
C	  17.0661000000	  35.8918000000	  26.0508000000
C	  17.0280000000	  35.3871000000	  23.0879000000
H	  16.4952000000	  38.7729000000	  25.4721000000
H	  17.6986000000	  37.9936000000	  24.6151000000
H	  16.0996000000	  38.4779000000	  23.8881000000
H	  14.6422000000	  37.4357000000	  26.4678000000
H	  13.8964000000	  36.6682000000	  25.0164000000
H	  14.4774000000	  35.7300000000	  26.3223000000
H	  16.9990000000	  36.1438000000	  27.1139000000
H	  16.9725000000	  34.8067000000	  25.9675000000
H	  18.0895000000	  36.2117000000	  25.7101000000
H	  17.5511000000	  34.6142000000	  23.6239000000
H	  16.7356000000	  34.9009000000	  22.1411000000
H	  17.6928000000	  36.2380000000	  22.9174000000
N	  14.1667000000	  30.7403000000	  24.9195000000
S	  14.8536000000	  32.0975000000	  25.0709000000
O	  14.5805000000	  33.0255000000	  23.9737000000
O	  14.8874000000	  32.6639000000	  26.3766000000
C	  16.5854000000	  31.5562000000	  24.8178000000
F	  16.8080000000	  31.1176000000	  23.5550000000
F	  16.9943000000	  30.6305000000	  25.6628000000
F	  17.3033000000	  32.6568000000	  25.0457000000
S	  12.5806000000	  30.5467000000	  24.9780000000
O	  12.1618000000	  29.2288000000	  24.5514000000
O	  11.7122000000	  31.6703000000	  24.6474000000
C	  12.3157000000	  30.4123000000	  26.7902000000
F	  12.3535000000	  31.5443000000	  27.4512000000
F	  11.1259000000	  29.9549000000	  26.9791000000
F	  13.1144000000	  29.5594000000	  27.3851000000
N	  11.9668000000	  32.9190000000	  19.6149000000
S	  13.4770000000	  32.9550000000	  20.0787000000
O	  13.7993000000	  33.8846000000	  21.1967000000
O	  14.0594000000	  31.6286000000	  20.1448000000
C	  14.3122000000	  33.7421000000	  18.6412000000
F	  15.6235000000	  33.4500000000	  18.6483000000
F	  14.1722000000	  35.0701000000	  18.6288000000
F	  13.8649000000	  33.3038000000	  17.4408000000
S	  10.8352000000	  32.0816000000	  20.4232000000
O	  10.8112000000	  32.4110000000	  21.8048000000
O	  10.8491000000	  30.6913000000	  20.1058000000
C	   9.2758800000	  32.9179000000	  19.8868000000
F	   8.2753400000	  32.4406000000	  20.6170000000
F	   9.2504600000	  34.1864000000	  20.1044000000
F	   9.0746300000	  32.7363000000	  18.5820000000
S	   7.9991000000	  40.3305000000	  30.9258000000
S	   6.9528400000	  38.5810000000	  30.2903000000
S	   8.1630200000	  36.8261000000	  30.3145000000
S	  11.4547000000	  36.0261000000	  26.8674000000
S	  10.7398000000	  36.0831000000	  24.8771000000
S	  12.0768000000	  34.9123000000	  23.5950000000
S	  10.2100000000	  34.8381000000	  27.8804000000
S	   8.6275300000	  36.2682000000	  28.3326000000
