35

Li	  20.7060000000	   3.1271500000	  47.9424000000
O	  21.8531000000	   1.9182300000	  47.0704000000
C	  21.9962000000	   1.9838400000	  45.6364000000
C	  21.2544000000	   0.7773612417	  44.9690000000
C	  21.2945000000	   3.2953700000	  45.1646000000
C	  23.4550000000	   2.0157500000	  45.1948000000
C	  22.4822000000	   0.8411612417	  47.7551000000
H	  21.6004000000	  -0.2307387583	  45.3275000000
H	  20.1846000000	   0.8541612417	  45.0580000000
H	  21.4887000000	   0.7955612417	  43.9733000000
H	  20.3036000000	   3.3098300000	  45.5487000000
H	  21.9114000000	   4.0863300000	  45.5846000000
H	  21.2616000000	   3.4315000000	  44.1314000000
H	  24.0898000000	   1.0982700000	  45.3637000000
H	  23.5818000000	   2.1129300000	  44.1790000000
H	  23.8893000000	   2.8520300000	  45.6484000000
H	  22.0015000000	  -0.1301387583	  47.4501000000
H	  23.5400000000	   0.6445612417	  47.4856000000
H	  22.4482000000	   0.8984612417	  48.8364000000
S	  21.6383000000	   4.3012600000	  49.3029000000
S	  22.6245000000	   3.0852900000	  50.7483000000
S	  21.1494000000	   1.8676900000	  51.6248000000
S	  17.5300000000	   2.5700900000	  54.9421000000
S	  16.2264000000	   2.8038500000	  53.2886000000
S	  14.5230000000	   1.6073100000	  53.6584000000
S	  19.2332000000	   1.3361700000	  54.5724000000
S	  20.8565000000	   2.3229000000	  53.6762000000
S	  18.4932000000	   3.6444600000	  47.9580000000
S	  18.9746000000	   1.5949200000	  48.1041000000
S	  18.2373000000	   0.8142612417	  49.8611000000
S	  19.8804000000	  -2.9604387583	  52.7113000000
S	  19.3686000000	  -4.8693387583	  52.5607000000
S	  18.2905000000	  -5.3456387583	  54.2600000000
S	  20.0340000000	  -1.9698387583	  50.8559000000
S	  18.2662000000	  -1.2705387583	  50.0579000000
