46

Li	  27.9199000000	  44.5518000000	   3.3738600000
N	  28.8311000000	  41.3811000000	   3.9164300000
S	  29.9873000000	  42.4392000000	   4.0352300000
O	  29.6097000000	  43.7561000000	   3.6040600000
O	  30.8537000000	  42.2834000000	   5.2141600000
C	  31.0508000000	  41.7109000000	   2.7581900000
F	  31.1877000000	  40.3791000000	   2.8641700000
F	  32.2940000000	  42.1839000000	   2.7988600000
F	  30.5153000000	  42.0168000000	   1.6216800000
S	  27.2804000000	  41.5444000000	   4.0965900000
O	  26.8532000000	  42.8540000000	   3.6571000000
O	  26.7289000000	  40.9427000000	   5.3093800000
C	  26.6887000000	  40.3664000000	   2.8084100000
F	  25.4113000000	  40.6024000000	   2.5077100000
F	  27.3544000000	  40.5758000000	   1.6372400000
F	  26.8697000000	  39.0640000000	   3.0082500000
N	  25.9522000000	  47.5666000000	   2.3705800000
S	  25.0967000000	  48.6291000000	   1.5935200000
O	  23.6604000000	  48.4158000000	   1.7510000000
O	  25.6080000000	  49.9462000000	   1.8145500000
C	  25.4255000000	  48.3068000000	  -0.2182688588
F	  26.4454000000	  49.0551000000	  -0.6287688588
F	  24.4614000000	  48.6822000000	  -1.0307688588
F	  25.6938000000	  47.0106000000	  -0.5199688588
S	  25.4881000000	  46.7287000000	   3.6262900000
O	  26.1981000000	  45.4635000000	   3.7218900000
O	  24.0890000000	  46.7639000000	   3.9547200000
C	  26.2420000000	  47.6782000000	   4.9921100000
F	  27.5832000000	  47.7286000000	   4.8863000000
F	  25.7635000000	  48.9074000000	   5.0593700000
F	  25.9323000000	  47.1324000000	   6.1528900000
N	  30.8850000000	  46.9652000000	   1.6129900000
S	  29.9499000000	  47.4330000000	   2.7348100000
O	  28.8618000000	  46.4640000000	   2.8543600000
O	  30.6366000000	  47.9985000000	   3.8999400000
C	  29.1776000000	  48.8176000000	   1.9236600000
F	  28.4786000000	  48.3579000000	   0.9229311412
F	  29.8923000000	  49.8478000000	   1.4772600000
F	  28.4108000000	  49.4596000000	   2.7909500000
S	  32.4181000000	  47.0354000000	   1.5966100000
O	  33.0902000000	  46.6076000000	   2.8512900000
O	  32.9711000000	  48.1221000000	   0.9301311412
C	  32.8052000000	  45.5984000000	   0.5041311412
F	  32.4635000000	  45.8152000000	  -0.7309688588
F	  34.1310000000	  45.3260000000	   0.5040311412
F	  32.1313000000	  44.5588000000	   0.9345311412
