43

Li	  56.6426000000	  47.6026000000	  19.7931000000
O	  53.6028000000	  50.4221000000	  19.2159000000
O	  55.3985000000	  48.9151000000	  19.6946000000
C	  54.6034000000	  51.0040000000	  20.1132000000
C	  55.8757000000	  50.1402000000	  20.1201000000
C	  54.2965000000	  49.2634000000	  18.8237000000
H	  54.8683000000	  51.9549000000	  19.7016000000
H	  54.0514000000	  51.0202000000	  21.0233000000
H	  56.3941000000	  50.5832000000	  19.3224000000
H	  56.4285000000	  50.1803000000	  21.0248000000
H	  53.6127000000	  48.5029000000	  18.7130000000
H	  54.6352000000	  49.5055000000	  17.8378000000
N	  55.0708000000	  43.5194000000	  19.7481000000
S	  55.6502000000	  43.1842000000	  21.1774000000
O	  56.5887000000	  44.1484000000	  21.6316000000
O	  54.5414000000	  42.6786000000	  22.0284000000
C	  56.5668000000	  41.7048000000	  20.8316000000
F	  57.1639000000	  41.3261000000	  21.9297000000
F	  57.5588000000	  41.8832000000	  19.9625000000
F	  55.8131000000	  40.7005000000	  20.4570000000
S	  54.9214000000	  44.9553000000	  19.0885000000
O	  54.6860000000	  44.9664000000	  17.6649000000
O	  55.8151000000	  45.9340000000	  19.5992000000
C	  53.2254000000	  45.4561000000	  19.6776000000
F	  52.3530000000	  44.4904000000	  19.8313000000
F	  53.4007000000	  46.0357000000	  20.8914000000
F	  52.6562000000	  46.3612000000	  18.8695000000
S	  50.4763000000	  50.1141000000	  29.2055000000
S	  52.2356000000	  50.3857000000	  28.1246000000
S	  53.7686000000	  49.0091000000	  28.6424000000
S	  55.9102000000	  49.0006000000	  24.5653000000
S	  55.8523000000	  47.7897000000	  22.8412000000
S	  57.6986000000	  47.5740000000	  21.7821000000
S	  55.8780000000	  47.8545000000	  26.3082000000
S	  54.0930000000	  47.5412000000	  27.1506000000
S	  62.3400832507	  57.1086000000	  17.5666000000
S	  60.3666832507	  57.1019000000	  16.8825000000
S	  59.8699532507	  55.7163000000	  15.3812000000
S	  57.6543000000	  51.0046000000	  17.0712000000
S	  58.0219000000	  49.0444000000	  16.5381000000
S	  58.1277000000	  47.8121000000	  18.1999000000
S	  59.1805232507	  52.4517000000	  16.3552000000
S	  58.3996000000	  54.3802000000	  16.0463000000
