35

Li	  49.6130000000	  50.8862000000	  13.6780000000
O	  49.2500000000	  52.6701000000	  13.2355000000
O	  48.6725000000	  54.6794000000	  14.0692000000
C	  48.0709000000	  53.1182000000	  12.5823000000
C	  47.5176000000	  53.8886000000	  13.7074000000
C	  49.6852000000	  53.7010000000	  14.0211000000
H	  48.1459000000	  53.7139000000	  11.7117000000
H	  47.4883000000	  52.3066000000	  12.3168000000
H	  46.7973000000	  54.6124000000	  13.3825000000
H	  47.1892000000	  53.2918000000	  14.5369000000
H	  49.8900000000	  53.3200000000	  15.0105000000
H	  50.5697000000	  54.0720000000	  13.6273000000
N	  52.1462000000	  50.4864000000	  11.0491000000
S	  52.3383000000	  51.4670000000	  12.3237000000
O	  52.4689000000	  52.8903000000	  11.9307000000
O	  51.5604000000	  51.0956000000	  13.4581000000
C	  53.9653000000	  51.0095000000	  12.9085000000
F	  53.9743000000	  49.7365000000	  13.1522000000
F	  54.3779000000	  51.5571000000	  14.0735000000
F	  54.8975000000	  51.1212000000	  12.0012000000
S	  50.8313000000	  50.0310000000	  10.4552000000
O	  50.6683000000	  50.3012000000	   9.0610400000
O	  49.7218000000	  50.3880000000	  11.3322000000
C	  50.9515000000	  48.1825000000	  10.5832000000
F	  49.8652000000	  47.5996000000	  10.2188000000
F	  51.9365000000	  47.7134000000	   9.7820700000
F	  51.2952000000	  47.7915000000	  11.8239000000
S	  48.1859000000	  49.4673000000	  14.2652000000
S	  49.2651000000	  50.4858000000	  15.8137000000
S	  49.1417000000	  49.4059000000	  17.6618000000
S	  49.1178000000	  50.2528000000	  22.5853000000
S	  49.5306000000	  48.3160000000	  23.3531000000
S	  47.6885000000	  47.4054000000	  24.2426000000
S	  49.9780000000	  50.5920000000	  20.7444000000
S	  48.5365000000	  50.5123000000	  19.2174000000
