35

Li	  54.3073000000	  27.3069000000	  34.0154000000
O	  54.1209000000	  30.5974000000	  31.1844000000
O	  54.2818000000	  28.8129000000	  32.4781000000
C	  52.9933000000	  29.8349000000	  30.7631000000
C	  53.3021000000	  28.4763000000	  31.4512000000
C	  55.0218000000	  29.8185000000	  31.9233000000
H	  52.1087000000	  30.3563000000	  31.2222000000
H	  52.8737000000	  29.8223000000	  29.6729000000
H	  52.4037000000	  27.9261000000	  31.9259000000
H	  53.7716000000	  27.9013000000	  30.7241000000
H	  55.9087000000	  29.4329000000	  31.4058000000
H	  55.4349000000	  30.5174000000	  32.6791000000
N	  51.6736000000	  24.9722000000	  33.8141000000
S	  51.3574000000	  26.1830000000	  34.7350000000
O	  52.3732000000	  27.2391000000	  34.6874000000
O	  49.9945000000	  26.5559000000	  34.6867000000
C	  51.5257000000	  25.4275000000	  36.4230000000
F	  52.0149000000	  26.3296000000	  37.2988000000
F	  52.3320000000	  24.4024000000	  36.4060000000
F	  50.3559000000	  24.9944000000	  36.9382000000
S	  52.9795000000	  24.6730000000	  32.9395000000
O	  53.5788000000	  23.3646000000	  33.0285000000
O	  54.0322000000	  25.6760000000	  32.9076000000
C	  52.3222000000	  24.7664000000	  31.2199000000
F	  51.9152000000	  25.9960000000	  30.7680000000
F	  53.2891000000	  24.3675000000	  30.4753000000
F	  51.3953000000	  23.8189000000	  31.0128000000
S	  55.7360000000	  27.0120000000	  35.8885000000
S	  56.0042000000	  29.0022000000	  35.2547000000
S	  57.8620000000	  29.8644000000	  35.9016000000
S	  61.9814232507	  31.8408000000	  33.3040000000
S	  62.9026332507	  33.6253000000	  33.9201000000
S	  63.8839732507	  34.8503000000	  32.5112000000
S	  59.9895132507	  31.6442000000	  33.8554000000
S	  59.4553232507	  29.7808000000	  34.6097000000
