53

Li	  12.9006000000	   6.1488000000	  35.1406000000
O	  13.9211000000	   7.7701400000	  31.6925000000
O	  13.6329000000	   7.3408000000	  33.8332000000
C	  13.0152000000	   8.6970800000	  32.1079000000
C	  12.9867000000	   8.5870900000	  33.6632000000
C	  14.5241000000	   7.2983000000	  32.8073000000
H	  13.4240000000	   9.6665600000	  31.8113000000
H	  12.0755000000	   8.5774400000	  31.5656000000
H	  13.4327000000	   9.4714000000	  34.1061000000
H	  11.9488000000	   8.7032900000	  34.1194000000
H	  14.8121000000	   6.2597900000	  32.6232000000
H	  15.4436000000	   7.9416800000	  33.0203000000
O	  11.4568000000	   5.2171400000	  33.7011000000
O	  10.3770000000	   4.8961900000	  31.6858000000
C	  10.9621000000	   3.9358600000	  33.7558000000
C	   9.9241800000	   3.9477800000	  32.6414000000
C	  11.4820000000	   5.4573400000	  32.3317000000
H	  11.7670000000	   3.2705500000	  33.4992000000
H	  10.5758000000	   3.5575900000	  34.7433000000
H	   9.9852800000	   2.9147100000	  32.2023000000
H	   8.8998400000	   4.1535400000	  33.1309000000
H	  11.3929000000	   6.5286700000	  32.2539000000
H	  12.4062000000	   5.0731400000	  31.8694000000
N	  16.0258000000	   6.2158500000	  36.6516000000
S	  14.9846000000	   7.1016700000	  37.4148000000
O	  13.6901000000	   7.0507900000	  36.7899000000
O	  15.1297000000	   6.8597700000	  38.8082000000
C	  15.5565000000	   8.8820200000	  37.1097000000
F	  14.8813000000	   9.7827200000	  37.7379000000
F	  15.4217000000	   9.1940100000	  35.8740000000
F	  16.8162000000	   8.9446400000	  37.4777000000
S	  15.8628000000	   5.3320500000	  35.3569000000
O	  16.6770000000	   5.8636800000	  34.3465000000
O	  14.5188000000	   4.9391900000	  35.0709000000
C	  16.7040000000	   3.8658100000	  35.9886000000
F	  17.8664000000	   4.1699300000	  36.5283000000
F	  16.0309000000	   3.2661900000	  36.9472000000
F	  16.9706000000	   3.0035200000	  35.0344000000
N	  10.5713000000	   5.9130000000	  38.1541000000
S	  10.1408000000	   7.0296700000	  37.1290000000
O	   9.8606600000	   8.2811600000	  37.8321000000
O	  11.0069000000	   7.1315500000	  36.0029000000
C	   8.5938200000	   6.3113400000	  36.5251000000
F	   8.2850900000	   6.7123700000	  35.2687000000
F	   7.5927700000	   6.5269900000	  37.3908000000
F	   8.6584500000	   4.9518200000	  36.4198000000
S	  11.7617000000	   4.9348800000	  37.9657000000
O	  12.7723000000	   5.0072000000	  38.9866000000
O	  12.0964000000	   4.6867200000	  36.6284000000
C	  10.8832000000	   3.4138600000	  38.4335000000
F	  11.7368000000	   2.4107300000	  38.5191000000
F	  10.3412000000	   3.5229900000	  39.6485000000
F	   9.9312000000	   2.9984200000	  37.6868000000
