43

Li	  14.6499000000	  40.7165000000	  29.0177000000
O	  13.4150000000	  42.2029000000	  25.5444000000
O	  13.3584000000	  41.4053000000	  27.6014000000
C	  12.4126000000	  41.1550000000	  25.5169000000
C	  12.5346000000	  40.4945000000	  26.8908000000
C	  13.4922000000	  42.5755000000	  26.8137000000
H	  11.4251000000	  41.5245000000	  25.4612000000
H	  12.6009000000	  40.5887000000	  24.5693000000
H	  11.5333000000	  40.2751000000	  27.3079000000
H	  12.9746000000	  39.5436000000	  26.8882000000
H	  14.4716000000	  43.0278000000	  26.9815000000
H	  12.7788000000	  43.2854000000	  27.0822000000
N	  15.4174000000	  44.9398000000	  30.7346000000
S	  15.9913000000	  43.6279000000	  30.2658000000
O	  16.9285000000	  43.0264000000	  31.1742000000
O	  15.1561000000	  42.8015000000	  29.4065000000
C	  17.1964000000	  44.2541000000	  29.0819000000
F	  16.6511000000	  44.8922000000	  28.0799000000
F	  18.0022000000	  43.3235000000	  28.6307000000
F	  17.9885000000	  45.0953000000	  29.6753000000
S	  14.0302000000	  45.1402000000	  31.4165000000
O	  13.9534000000	  46.4251000000	  32.0504000000
O	  13.7307000000	  43.9645000000	  32.2347000000
C	  12.8577000000	  45.3240000000	  30.0747000000
F	  12.6213000000	  44.1801000000	  29.3854000000
F	  11.7017000000	  45.8200000000	  30.4919000000
F	  13.2728000000	  46.2154000000	  29.1788000000
S	  13.6740000000	  40.3397000000	  31.1473000000
S	  12.9402000000	  38.3299000000	  31.1540000000
S	  12.2058000000	  37.7334000000	  29.3412000000
S	  11.5748000000	  33.4865000000	  27.4668000000
S	  10.5084000000	  31.7198000000	  27.6636000000
S	   9.8031400000	  30.9013000000	  25.8707000000
S	  11.8597000000	  34.2707000000	  29.3175000000
S	  10.9048000000	  36.0810000000	  29.4926000000
S	  19.5447000000	  33.1401000000	  34.0110000000
S	  18.8545000000	  34.6382000000	  35.2912000000
S	  17.5538000000	  35.9490000000	  34.4930000000
S	  17.1458000000	  39.4741000000	  31.6355000000
S	  17.4346000000	  39.4785000000	  29.5052000000
S	  15.7284000000	  38.7548000000	  28.5980000000
S	  18.7941000000	  38.8078000000	  32.8115000000
S	  18.0841000000	  37.9577000000	  34.6331000000
