38

Li	  16.2701000000	  42.0619000000	  24.0424000000
O	  15.5311000000	  43.1425000000	  25.3432000000
O	  13.3456000000	  43.1407000000	  25.4149000000
C	  15.1829000000	  44.5134000000	  25.1678000000
C	  13.6899000000	  44.4757000000	  25.2830000000
C	  14.4484000000	  42.5462000000	  25.8709000000
H	  15.6855000000	  45.0366000000	  25.9585000000
H	  15.5133000000	  44.8950000000	  24.2580000000
H	  13.3526000000	  44.9922000000	  26.1741000000
H	  13.1055000000	  44.8638000000	  24.4234000000
H	  14.4823000000	  41.4892000000	  25.6090000000
H	  14.3664000000	  42.6332000000	  26.9279000000
O	  15.5147000000	  41.7919000000	  20.4565000000
O	  15.3965000000	  42.6579000000	  22.4547000000
C	  14.7295000000	  40.9330000000	  21.2351000000
C	  14.1678000000	  42.0272000000	  22.1856000000
C	  15.9172000000	  42.8275000000	  21.2390000000
H	  13.8689000000	  40.6181000000	  20.5752000000
H	  15.2162000000	  40.1363000000	  21.7837000000
H	  13.4434000000	  42.7277000000	  21.7944000000
H	  13.8082000000	  41.6198000000	  23.0678000000
H	  17.0677000000	  42.9696000000	  21.3176000000
H	  15.4270000000	  43.6097000000	  20.8052000000
N	  15.0408000000	  37.8709000000	  24.9781000000
S	  13.4928000000	  38.1306000000	  24.6755000000
O	  13.1793000000	  39.3061000000	  23.8857000000
O	  12.7162000000	  36.9111000000	  24.4611000000
C	  13.0272000000	  38.5180000000	  26.4247000000
F	  13.4091000000	  37.5217000000	  27.2244000000
F	  11.7469000000	  38.5988000000	  26.4971000000
F	  13.5903000000	  39.6082000000	  26.9345000000
S	  16.2581000000	  38.5233000000	  24.2682000000
O	  16.0316000000	  39.9139000000	  23.9298000000
O	  17.0385000000	  37.6892000000	  23.3820000000
C	  17.2931000000	  38.6649000000	  25.7985000000
F	  17.1877000000	  37.5918000000	  26.4864000000
F	  18.5967000000	  38.7033000000	  25.6144000000
F	  16.9646000000	  39.6557000000	  26.6323000000
