46

Li	  58.0656000000	  25.3414000000	  39.4153000000
O	  57.3933000000	  23.1903000000	  39.9327000000
O	  56.2645000000	  21.3439000000	  39.6929000000
C	  57.8627000000	  22.4035000000	  40.9714000000
C	  57.0396000000	  21.2009000000	  40.9045000000
C	  56.9763000000	  22.3368000000	  39.0258000000
H	  58.8994000000	  22.0670000000	  40.7367000000
H	  57.8260000000	  22.8874000000	  41.9423000000
H	  57.5878000000	  20.2302000000	  40.9156000000
H	  56.3965000000	  21.3570000000	  41.7729000000
H	  56.3311000000	  22.8302000000	  38.3108000000
H	  57.8536000000	  21.9252000000	  38.4150000000
O	  57.3897000000	  26.4770000000	  40.5935000000
C	  56.1855000000	  26.5307000000	  41.3510000000
C	  55.3811000000	  27.7426000000	  41.1351000000
C	  55.2131000000	  25.2884000000	  41.0836000000
C	  56.6208000000	  26.4393000000	  42.8494000000
C	  58.1709000000	  27.6918000000	  40.6113000000
H	  55.1595000000	  27.8621000000	  40.0670000000
H	  54.4503000000	  27.8380000000	  41.6685000000
H	  55.8729000000	  28.6134000000	  41.4938000000
H	  55.5325000000	  24.2842000000	  41.3783000000
H	  54.2427000000	  25.4483000000	  41.6383000000
H	  55.0372000000	  25.2124000000	  40.0691000000
H	  57.4262000000	  27.0703000000	  43.1338000000
H	  55.8135000000	  26.7444000000	  43.4615000000
H	  56.8177000000	  25.3734000000	  43.0894000000
H	  57.6771000000	  28.4618000000	  40.0412000000
H	  58.3829000000	  28.0808000000	  41.5527000000
H	  59.1292432507	  27.3680000000	  40.0807000000
S	  65.5784132507	  21.6343000000	  29.5785000000
S	  64.2921632507	  22.9691000000	  30.8055000000
S	  62.6233032507	  21.8147000000	  31.5621000000
S	  61.8285432507	  23.5100000000	  36.4189000000
S	  60.6222332507	  22.9418000000	  38.0890000000
S	  60.3263132507	  24.6841000000	  39.2515000000
S	  61.1993132507	  22.6933000000	  34.5539000000
S	  62.6999832507	  21.4678000000	  33.6424000000
S	  56.8541000000	  25.6445000000	  37.6107000000
S	  58.4046000000	  25.9274000000	  36.0886000000
S	  59.8869432507	  27.3028000000	  36.7080000000
S	  62.6806532507	  30.6578000000	  35.0734000000
S	  63.1839532507	  32.3075000000	  33.9159000000
S	  62.5541832507	  34.1062000000	  34.8814000000
S	  60.8242132507	  29.9911000000	  34.5157000000
S	  59.5950632507	  29.3095000000	  36.0751000000
