56

Li	  55.7398000000	   4.5181500000	  56.5180000000
O	  56.0751000000	   2.5548900000	  56.1608000000
O	  55.9392000000	   0.5388612417	  57.0268000000
C	  55.6289000000	   1.7579300000	  55.1134000000
C	  55.4203000000	   0.3337612417	  55.7112000000
C	  56.6843000000	   1.6554000000	  57.0324000000
H	  54.7560000000	   2.2050600000	  54.7677000000
H	  56.2527000000	   1.6417000000	  54.2289000000
H	  54.4149000000	   0.0422612417	  55.9089000000
H	  56.0093000000	  -0.3570387583	  55.0730000000
H	  57.6788000000	   1.3890600000	  56.6749000000
H	  56.8256000000	   2.1540500000	  57.9507000000
O	  54.7614000000	   3.9122400000	  58.5670000000
O	  52.9326000000	   2.8009800000	  59.4704588588
C	  54.1666000000	   4.7857600000	  59.4585788588
C	  52.7404000000	   4.2170600000	  59.7131188588
C	  54.0222000000	   2.7556300000	  58.6482000000
H	  54.7674000000	   4.9084400000	  60.3341288588
H	  54.1316000000	   5.8070400000	  59.0659488588
H	  52.4538000000	   4.4319500000	  60.7367288588
H	  52.0832000000	   4.7485600000	  59.0045888588
H	  53.7434000000	   2.5843900000	  57.6441000000
H	  54.6390000000	   1.9191600000	  58.8935000000
O	  56.4682000000	   6.2155100000	  56.9226000000
C	  57.9048000000	   6.4076000000	  57.2640000000
C	  58.6701000000	   7.1189500000	  56.0752000000
C	  58.0378000000	   7.1373100000	  58.5730000000
C	  58.3414000000	   4.9722600000	  57.5534000000
C	  55.8843000000	   7.4739300000	  56.6348000000
H	  58.2594000000	   8.0819100000	  55.8446000000
H	  59.7326332507	   7.3307500000	  56.2151000000
H	  58.6610000000	   6.5200800000	  55.1821000000
H	  57.9353000000	   8.1785900000	  58.4769000000
H	  57.2917000000	   6.7577100000	  59.2231788588
H	  58.9964000000	   7.0094000000	  59.0649488588
H	  57.9290000000	   4.5140700000	  58.5004000000
H	  58.0399000000	   4.2680600000	  56.8418000000
H	  59.4336932507	   4.9275500000	  57.6310000000
H	  56.1720000000	   8.2262900000	  57.2775000000
H	  56.1388000000	   7.8667900000	  55.6951000000
H	  54.8142000000	   7.3697200000	  56.5698000000
N	  53.9877000000	   5.2218300000	  53.4688000000
S	  53.3198000000	   4.6829300000	  54.7270000000
O	  52.7190000000	   3.4177700000	  54.5731000000
O	  53.9828000000	   5.0226800000	  55.9332000000
C	  51.8570000000	   5.7683300000	  54.7881000000
F	  51.1008000000	   5.6536700000	  55.8454000000
F	  51.0148000000	   5.4807700000	  53.7626000000
F	  52.1655000000	   7.0916700000	  54.7063000000
S	  55.5396000000	   5.3620400000	  53.2659000000
O	  56.2040000000	   4.8029700000	  54.4264000000
O	  55.9987000000	   6.6013700000	  52.7328000000
C	  56.0546000000	   4.1763800000	  52.0127000000
F	  55.6064000000	   2.9414900000	  52.1094000000
F	  55.6424000000	   4.5747900000	  50.8062000000
F	  57.3465000000	   4.1887100000	  51.9473000000
