28

Li	  58.5969000000	  25.0711000000	  27.6178000000
O	  57.5009000000	  24.9729000000	  28.9715000000
O	  58.0224000000	  23.5992000000	  30.8258000000
C	  56.4545000000	  24.0672000000	  29.1362000000
C	  57.0273000000	  22.9730000000	  30.0971000000
C	  58.1904000000	  24.8511000000	  30.2205000000
H	  55.5466000000	  24.5654000000	  29.5722000000
H	  56.0647000000	  23.6787000000	  28.1710000000
H	  56.2734000000	  22.2895000000	  30.6957000000
H	  57.5937000000	  22.2515000000	  29.4947000000
H	  59.2418732507	  24.9828000000	  30.0226000000
H	  57.7979000000	  25.7286000000	  30.8114000000
S	  67.2536332507	  18.1559000000	  31.9237000000
S	  65.5029632507	  18.5848000000	  30.7584000000
S	  66.0434332507	  20.0099000000	  29.3086000000
S	  62.3904832507	  23.3145000000	  29.3896000000
S	  60.7331432507	  22.2434000000	  28.8716000000
S	  59.6481632507	  23.1407000000	  27.2229000000
S	  64.2508332507	  22.8130000000	  28.5138000000
S	  65.7197032507	  22.0207000000	  29.8380000000
S	  57.4863000000	  20.4882000000	  26.3778000000
S	  57.9815000000	  20.1618000000	  24.3141000000
S	  58.7707000000	  21.9403000000	  23.4262000000
S	  57.7008000000	  26.2558000000	  24.7431000000
S	  57.9135000000	  27.1043000000	  26.6949000000
S	  59.8020732507	  26.8619000000	  27.5537000000
S	  56.7889000000	  24.2663000000	  24.6803000000
S	  57.1064000000	  23.2126000000	  22.9649000000
