43

Li	  57.5693000000	  22.2740000000	  38.2986000000
O	  54.7881000000	  21.8853000000	  40.6209000000
O	  56.8985000000	  21.6838000000	  40.1706000000
C	  54.9704000000	  20.5105000000	  40.5165000000
C	  56.4611000000	  20.3695000000	  40.6115000000
C	  56.0249000000	  22.4724000000	  40.8560000000
H	  54.5012000000	  20.0739000000	  41.3633000000
H	  54.5476000000	  20.0778000000	  39.6433000000
H	  56.8066000000	  20.1954000000	  41.6133000000
H	  56.6990000000	  19.5141000000	  40.0280000000
H	  55.9512000000	  23.5099000000	  40.6861000000
H	  56.2633000000	  22.3256000000	  41.9381000000
N	  58.3421000000	  24.8089000000	  41.4387000000
S	  58.5583000000	  25.1476000000	  39.9180000000
O	  59.8351732507	  25.8229000000	  39.6545000000
O	  58.1643000000	  24.0041000000	  39.1270000000
C	  57.2178000000	  26.3139000000	  39.7129000000
F	  56.0369000000	  25.7132000000	  39.7862000000
F	  57.2280000000	  26.8614000000	  38.5025000000
F	  57.2488000000	  27.3073000000	  40.5260000000
S	  59.1613932507	  23.7526000000	  42.2317000000
O	  60.0147432507	  22.9625000000	  41.3294000000
O	  58.3054000000	  23.0648000000	  43.1708000000
C	  60.2964532507	  24.7739000000	  43.2291000000
F	  60.7266132507	  25.7606000000	  42.5001000000
F	  59.6978832507	  25.2540000000	  44.3305000000
F	  61.3010632507	  24.0251000000	  43.6544000000
S	  66.1674632507	  16.2296000000	  30.7577000000
S	  64.3123832507	  16.9173000000	  31.4731000000
S	  63.9636432507	  16.2331000000	  33.4198000000
S	  60.1542132507	  19.5610000000	  35.7522000000
S	  60.4464832507	  21.4433000000	  36.6160000000
S	  59.7766532507	  21.3852000000	  38.5654000000
S	  62.0021432507	  18.7030000000	  35.2837000000
S	  62.0698132507	  16.7533000000	  34.3659000000
S	  56.4320000000	  21.0961000000	  36.8248000000
S	  55.6927000000	  23.0391000000	  37.2686000000
S	  54.4702000000	  23.7282000000	  35.7036000000
S	  55.0346000000	  28.3916000000	  35.4437000000
S	  56.7250000000	  27.9120000000	  34.2565000000
S	  57.6275000000	  29.5327000000	  33.2309000000
S	  53.4625000000	  26.9883000000	  35.0846000000
S	  53.3610000000	  25.3430000000	  36.4227000000
