39

Li	  21.2267000000	   6.1144200000	  41.0687000000
O	  20.3928000000	   4.0589600000	  37.7177000000
O	  20.4297000000	   5.0211300000	  39.8001000000
C	  21.4342000000	   3.4783900000	  38.4721000000
C	  20.9653000000	   3.7326100000	  39.8491000000
C	  19.8900000000	   5.0894300000	  38.5207000000
H	  21.4076000000	   2.3910900000	  38.2831000000
H	  22.4165000000	   3.8198700000	  38.2095000000
H	  20.2119000000	   3.0114100000	  40.2344000000
H	  21.6980000000	   3.7331900000	  40.6641000000
H	  20.0345000000	   6.0163200000	  37.9710000000
H	  18.7485000000	   5.0365700000	  38.5235000000
O	  23.1619000000	   6.1055000000	  40.6904000000
O	  24.8491000000	   4.8427600000	  39.9666000000
C	  23.7132000000	   6.6821600000	  39.4778000000
C	  24.8061000000	   5.7687500000	  38.9946000000
C	  24.2575000000	   5.4095200000	  41.1067000000
H	  22.9255000000	   6.9215700000	  38.7913000000
H	  24.2199000000	   7.6425900000	  39.6907000000
H	  24.6200000000	   5.2270100000	  38.0645000000
H	  25.7652000000	   6.3101100000	  39.0460000000
H	  24.9513000000	   6.0204600000	  41.6660000000
H	  23.8769000000	   4.6770700000	  41.8723000000
S	  20.4462000000	   8.1621800000	  40.7976000000
S	  21.2773000000	   9.4371000000	  39.2804000000
S	  20.9582000000	   8.7000200000	  37.3961000000
S	  22.2515000000	   5.4539800000	  33.8606000000
S	  20.9062000000	   3.7307000000	  33.8055000000
S	  21.3503000000	   2.2437700000	  32.3907000000
S	  22.8427000000	   6.1092100000	  35.8269000000
S	  22.7163000000	   8.1979900000	  36.2441000000
S	  21.1704000000	   4.9662100000	  43.0050000000
S	  19.9972000000	   6.6000300000	  43.7713000000
S	  19.2228000000	   6.0561700000	  45.6769000000
S	  14.4198000000	   4.1828600000	  47.4951000000
S	  13.7304000000	   3.5263300000	  49.4254000000
S	  13.5507000000	   1.4045100000	  49.6751000000
S	  16.6143000000	   4.3505000000	  47.2885000000
S	  17.2563000000	   5.3425600000	  45.5679000000
