35

Li	  57.1260000000	  21.0223000000	  37.0862000000
O	  55.3550000000	  21.1318000000	  37.7643000000
C	  54.5911000000	  20.1178000000	  38.4316000000
C	  55.5953000000	  19.0106000000	  38.7659000000
C	  53.9172000000	  20.6129000000	  39.7319000000
C	  53.5014000000	  19.6194000000	  37.4268000000
C	  54.8723000000	  22.4253000000	  37.7167000000
H	  56.4615000000	  19.5244000000	  39.2891000000
H	  55.0410000000	  18.2876000000	  39.3536000000
H	  56.0097000000	  18.4826000000	  37.9040000000
H	  53.5920000000	  19.8173000000	  40.4820000000
H	  54.6504000000	  21.1463000000	  40.3767000000
H	  53.0959000000	  21.3344000000	  39.4749000000
H	  52.7931000000	  20.4806000000	  37.2019000000
H	  54.0143000000	  19.2741000000	  36.5449000000
H	  52.8752000000	  18.7713000000	  37.8074000000
H	  55.4926000000	  22.9748000000	  37.0580000000
H	  53.8709000000	  22.5079000000	  37.3964000000
H	  55.0811000000	  22.9194000000	  38.6796000000
S	  66.7935932507	  18.0789000000	  33.7150000000
S	  67.0127132507	  17.6924000000	  35.7240000000
S	  65.2339632507	  17.2948000000	  36.7723000000
S	  61.1057032507	  19.6335000000	  38.6709000000
S	  59.2673732507	  20.1780000000	  37.8804000000
S	  58.6278000000	  22.1772000000	  38.3153000000
S	  62.7546232507	  19.7349000000	  37.2754000000
S	  64.5073632507	  18.8056000000	  38.0713000000
S	  56.9398000000	  20.0663000000	  35.3138000000
S	  58.3584000000	  21.4861000000	  34.6697000000
S	  57.4730000000	  23.1165000000	  33.7405000000
S	  55.9246000000	  27.5440000000	  33.5933000000
S	  55.9689000000	  29.5943000000	  34.1679000000
S	  57.5035000000	  30.7679000000	  33.2736000000
S	  56.4738000000	  26.2202000000	  35.1497000000
S	  58.1223000000	  24.9339000000	  34.6053000000
