53

Li	  13.5528000000	  17.7908000000	  21.3024000000
O	  11.7602000000	  15.5896000000	  23.8885000000
O	  12.3094000000	  17.0374000000	  22.3437000000
C	  11.0834000000	  15.2382000000	  22.6972000000
C	  11.0405000000	  16.5874000000	  22.0518000000
C	  12.7160000000	  16.5112000000	  23.5838000000
H	  11.6338000000	  14.5284000000	  22.0850000000
H	  10.1507000000	  14.8341000000	  22.8208000000
H	  10.8284000000	  16.4499000000	  20.9839000000
H	  10.3117000000	  17.2146000000	  22.5265000000
H	  12.7300000000	  17.3813000000	  24.2854000000
H	  13.7661000000	  16.0627000000	  23.5444000000
O	  14.8184000000	  16.8425000000	  20.6680000000
C	  15.9190000000	  17.2627000000	  19.8311000000
C	  16.1299000000	  18.7429000000	  19.9614000000
C	  17.1832000000	  16.5895000000	  20.4625000000
C	  15.7353000000	  16.9632000000	  18.3337000000
C	  14.2817000000	  15.5177000000	  20.3575000000
H	  17.0407000000	  19.0764000000	  19.4360000000
H	  15.3214000000	  19.2579000000	  19.3771000000
H	  16.1010000000	  18.9820000000	  21.0636000000
H	  18.0388000000	  17.2359000000	  20.1149000000
H	  17.2416000000	  16.4694000000	  21.4705000000
H	  17.2901000000	  15.5630000000	  20.0284000000
H	  14.7124000000	  17.2250000000	  18.0422000000
H	  16.3943000000	  17.5731000000	  17.6653000000
H	  15.8359000000	  15.8963000000	  18.0283000000
H	  14.9498000000	  14.7762000000	  20.2563000000
H	  13.5843000000	  15.2847000000	  21.0838000000
H	  13.5849000000	  15.5468000000	  19.4922000000
N	  15.3672000000	  18.8506000000	  25.3854000000
S	  16.0226000000	  17.3987000000	  25.4371000000
O	  15.2322000000	  16.3948000000	  26.2066000000
O	  16.6466000000	  17.0460000000	  24.1985000000
C	  17.4370000000	  17.7285000000	  26.5433000000
F	  17.0681000000	  17.9273000000	  27.8150000000
F	  18.1922000000	  18.7236000000	  26.0271000000
F	  18.2388000000	  16.7192000000	  26.6732000000
S	  14.6301000000	  19.5577000000	  24.1675000000
O	  13.5061000000	  20.3396000000	  24.6196000000
O	  14.5255000000	  18.7981000000	  22.9645000000
C	  15.8676000000	  20.8149000000	  23.6906000000
F	  15.6369000000	  21.4347000000	  22.5608000000
F	  15.9213000000	  21.7150000000	  24.6560000000
F	  17.0313000000	  20.2806000000	  23.7077000000
S	  12.4858000000	  19.7924000000	  20.9674000000
S	  12.0975000000	  18.3105000000	  19.4571000000
S	  12.0307000000	  19.3328000000	  17.6188000000
S	  13.7147000000	  22.1842000000	  13.7935000000
S	  14.9449000000	  22.1865000000	  12.1177000000
S	  16.7073000000	  23.1685000000	  12.5398000000
S	  13.4438000000	  20.1572000000	  14.5279000000
S	  13.7978000000	  19.7651000000	  16.6170000000
