61

Li	   9.3040700000	   6.3559100000	  30.0901000000
O	   7.9210600000	   5.5750000000	  28.6619000000
O	   7.4581800000	   5.0928400000	  26.5411000000
C	   6.7444300000	   4.8423700000	  28.7163000000
C	   6.2362200000	   4.9450300000	  27.3048000000
C	   8.4612100000	   5.1978700000	  27.4832000000
H	   7.0057600000	   3.8102800000	  29.0627000000
H	   6.1060800000	   5.3094800000	  29.4559000000
H	   5.8720300000	   4.0381300000	  26.7918000000
H	   5.4432800000	   5.6907200000	  27.0883000000
H	   9.1338200000	   5.9190400000	  27.1485000000
H	   8.9297800000	   4.2001200000	  27.7311000000
O	   8.3354900000	   8.2429800000	  30.2510000000
O	   8.6514100000	  10.4665000000	  30.1808000000
C	   7.6084000000	   8.6876100000	  29.1381000000
C	   7.7433500000	  10.2156000000	  29.1880000000
C	   8.6092800000	   9.3533800000	  30.9998000000
H	   8.0659200000	   8.4038200000	  28.2142000000
H	   6.5908100000	   8.3009800000	  29.1919000000
H	   7.9600300000	  10.7203000000	  28.2066000000
H	   6.9133200000	  10.6585000000	  29.6105000000
H	   7.7801900000	   9.5978300000	  31.7091000000
H	   9.2833900000	   9.1274100000	  31.8320000000
N	  11.1492000000	   2.8935300000	  31.3412000000
S	  11.8778000000	   3.8857500000	  30.4167000000
O	  10.8320000000	   4.5582200000	  29.6640000000
O	  12.9807000000	   4.6076800000	  30.9697000000
C	  12.7185000000	   2.8051000000	  29.1067000000
F	  13.4282000000	   1.8572000000	  29.7314000000
F	  13.5230000000	   3.5430200000	  28.3717000000
F	  11.8517000000	   2.1412700000	  28.3420000000
S	  11.1365000000	   2.8027500000	  32.8951000000
O	  10.2109000000	   1.7679400000	  33.3071000000
O	  11.2144000000	   4.0799700000	  33.6356000000
C	  12.7885000000	   2.0192000000	  33.3191000000
F	  13.7603000000	   2.9237300000	  33.2720000000
F	  12.7541000000	   1.5612700000	  34.5327000000
F	  12.9928000000	   0.9871850000	  32.5530000000
N	  12.6123000000	   8.6699400000	  29.6341000000
S	  12.5580000000	   9.6081000000	  30.8340000000
O	  11.4241000000	  10.5241000000	  30.8058000000
O	  12.9328000000	   9.0755500000	  32.1272000000
C	  14.0171000000	  10.7024000000	  30.4588000000
F	  15.1414000000	  10.0472000000	  30.2019000000
F	  14.2944000000	  11.5482000000	  31.4405000000
F	  13.8681000000	  11.3761000000	  29.3688000000
S	  11.4974000000	   8.2806300000	  28.5201000000
O	  10.9369000000	   9.4192200000	  27.8225000000
O	  10.6982000000	   7.1190000000	  28.8330000000
C	  12.6257000000	   7.4627200000	  27.3638000000
F	  13.3663000000	   6.5397200000	  27.9683000000
F	  11.8618000000	   6.8602600000	  26.4419000000
F	  13.4632000000	   8.3020500000	  26.7517000000
S	   9.8649600000	   6.4564800000	  32.2089000000
S	   8.3316200000	   4.9326400000	  31.9464000000
S	   6.4589500000	   5.2290000000	  32.9119000000
S	   4.7300600000	   9.7526700000	  31.9753000000
S	   3.4561200000	  11.3885000000	  32.4164000000
S	   3.0244600000	  12.4463000000	  30.5975000000
S	   4.0638200000	   7.8994900000	  32.8330000000
S	   4.9933200000	   6.2222700000	  31.8234000000
