38

Li	  33.4263000000	  52.5192000000	  16.0008000000
O	  32.6885000000	  53.8027000000	  15.0047000000
O	  33.9006000000	  55.2134000000	  13.7106000000
C	  32.2817000000	  53.5819000000	  13.6730000000
C	  33.0915000000	  54.5763000000	  12.8177000000
C	  33.3269000000	  55.0667000000	  14.9569000000
H	  32.4880000000	  52.5607000000	  13.4119000000
H	  31.2024000000	  53.7472000000	  13.6015000000
H	  33.7463000000	  54.1422000000	  12.0843000000
H	  32.3941000000	  55.2432000000	  12.1786000000
H	  32.5051000000	  55.7428000000	  14.9970000000
H	  33.9788000000	  55.0898000000	  15.8736000000
O	  31.9298000000	  51.3663000000	  16.0724000000
O	  31.4538000000	  49.2354000000	  16.4734000000
C	  31.0456000000	  50.8744000000	  15.0793000000
C	  30.3023000000	  49.8464000000	  15.9243000000
C	  32.3404000000	  50.1939000000	  16.6430000000
H	  30.4353000000	  51.6575000000	  14.7131000000
H	  31.5425000000	  50.5070000000	  14.1469000000
H	  29.5998000000	  50.3026000000	  16.6449000000
H	  29.7742000000	  49.1141000000	  15.2693000000
H	  33.1890000000	  49.9119000000	  16.0026000000
H	  32.5743000000	  50.3407000000	  17.7231000000
N	  35.9876000000	  52.2214000000	  18.4170000000
S	  36.2185000000	  51.5650000000	  16.9907000000
O	  35.1483000000	  51.6418000000	  15.9556000000
O	  37.5207000000	  51.8696000000	  16.4223000000
C	  36.3032000000	  49.7945000000	  17.4511000000
F	  37.3277000000	  49.4782000000	  18.2621000000
F	  36.3656000000	  49.0329000000	  16.3331000000
F	  35.2795000000	  49.4362000000	  18.0988000000
S	  34.6846000000	  53.0267000000	  18.8242000000
O	  34.2940000000	  52.8366000000	  20.1583000000
O	  33.6463000000	  52.9923000000	  17.7924000000
C	  35.2857000000	  54.7563000000	  18.7181000000
F	  36.2166000000	  54.9599000000	  17.7924000000
F	  34.3382000000	  55.6573000000	  18.5621000000
F	  35.8172000000	  55.1168000000	  19.8153000000
