59

Li	  33.0625000000	  31.1553000000	  53.2594000000
O	  28.8731000000	  30.4170000000	  54.3138000000
O	  30.9270000000	  30.2705000000	  53.4464000000
C	  29.2361000000	  29.0356000000	  54.0507000000
C	  30.1640000000	  29.2051000000	  52.9312000000
C	  29.9802000000	  31.2016000000	  53.9645000000
H	  29.7908000000	  28.6572000000	  54.9448000000
H	  28.4320000000	  28.3881000000	  53.8950000000
H	  30.8103000000	  28.3312000000	  52.8942000000
H	  29.7414000000	  29.4076000000	  51.9693000000
H	  29.7792000000	  31.8573000000	  53.0931000000
H	  30.3175000000	  31.7890000000	  54.8082000000
O	  34.0485000000	  30.5377000000	  56.9403000000
O	  33.4776000000	  30.2024000000	  54.8560000000
C	  35.1605000000	  29.7171000000	  56.4665000000
C	  34.6264000000	  29.3081000000	  55.0719000000
C	  32.9446000000	  30.2290000000	  56.1371000000
H	  36.0061000000	  30.3937000000	  56.3219000000
H	  35.4952000000	  28.8720000000	  57.1422000000
H	  35.2356000000	  29.2777000000	  54.1515000000
H	  34.4028000000	  28.2748000000	  55.1549000000
H	  32.5994000000	  29.2214000000	  56.4241000000
H	  32.2264000000	  31.0096000000	  56.2213000000
O	  32.8319000000	  30.7386000000	  51.3858000000
C	  33.3830000000	  29.7451000000	  50.4512000000
C	  34.2992000000	  30.3626000000	  49.4230000000
C	  34.0814000000	  28.7712000000	  51.4166000000
C	  32.2154000000	  29.0325000000	  49.7773000000
C	  32.1627000000	  31.9419000000	  50.9628000000
H	  35.0297000000	  29.6709000000	  49.0407000000
H	  33.5737000000	  30.7104000000	  48.6445000000
H	  34.9158000000	  31.1720000000	  49.8363000000
H	  34.5179000000	  27.9752000000	  50.8323000000
H	  34.8023000000	  29.2868000000	  52.0137000000
H	  33.4549000000	  28.2955000000	  52.1516000000
H	  32.5533000000	  28.3513000000	  48.9894000000
H	  31.6864000000	  28.5088000000	  50.5299000000
H	  31.6248000000	  29.7906000000	  49.2325000000
H	  31.3829000000	  31.7864000000	  50.1245000000
H	  31.7022000000	  32.4143000000	  51.8300000000
H	  32.7750000000	  32.7336000000	  50.5945000000
O	  34.2267000000	  32.7347000000	  53.2448000000
C	  34.0657000000	  33.9304000000	  53.9855000000
C	  34.9493000000	  33.7584000000	  55.2267000000
C	  34.2779000000	  35.1461000000	  53.0837000000
C	  32.5180000000	  33.9170000000	  54.3386000000
C	  35.3373000000	  32.6961000000	  52.4113000000
H	  34.7778000000	  34.6324000000	  55.8320000000
H	  34.8143000000	  32.7588000000	  55.7625000000
H	  36.0184000000	  33.7524000000	  55.0802000000
H	  33.8254000000	  36.0735000000	  53.5294000000
H	  35.3241000000	  35.4110000000	  52.8729000000
H	  33.7827000000	  35.1171000000	  52.1620000000
H	  32.2421000000	  34.4949000000	  55.1785000000
H	  31.9418000000	  34.2155000000	  53.5000000000
H	  32.2004000000	  32.8812000000	  54.5781000000
H	  36.2761000000	  32.7788000000	  53.0272000000
H	  35.3131000000	  31.6985000000	  52.0007000000
H	  35.3985000000	  33.3507000000	  51.5340000000
