39

Li	  55.6454000000	  43.0500000000	  21.7383000000
N	  58.0765000000	  40.4592000000	  23.0672000000
S	  58.5682000000	  41.8985000000	  22.4845000000
O	  57.4868000000	  42.6593000000	  21.9344000000
O	  59.6271032507	  42.5171000000	  23.2234000000
C	  59.4563232507	  41.3425000000	  20.9890000000
F	  58.6753000000	  40.5702000000	  20.2393000000
F	  60.5256732507	  40.6130000000	  21.2416000000
F	  59.7891332507	  42.3483000000	  20.1731000000
S	  58.5269000000	  39.8677000000	  24.4753000000
O	  57.6496000000	  40.1032000000	  25.5916000000
O	  59.9845532507	  40.0450000000	  24.7124000000
C	  58.3740000000	  38.1636000000	  24.1189000000
F	  57.1161000000	  37.7291000000	  23.9567000000
F	  58.9404000000	  37.6859000000	  23.0557000000
F	  58.9920000000	  37.3885000000	  25.0880000000
N	  54.3909000000	  39.8267000000	  23.0435000000
S	  54.9510000000	  39.8767000000	  21.5620000000
O	  55.0938000000	  41.1643000000	  20.9570000000
O	  56.0390000000	  38.9312000000	  21.3265000000
C	  53.5016000000	  39.0538000000	  20.7409000000
F	  53.5069000000	  37.7499000000	  20.8929000000
F	  53.5424000000	  39.2624000000	  19.4761000000
F	  52.3867000000	  39.5111000000	  21.1863000000
S	  54.3503000000	  40.9088000000	  24.1823000000
O	  54.7970000000	  42.2413000000	  23.8375000000
O	  54.7667000000	  40.3121000000	  25.4590000000
C	  52.5749000000	  41.0062000000	  24.3242000000
F	  52.0610000000	  39.8438000000	  24.5757000000
F	  52.1779000000	  41.8501000000	  25.2402000000
F	  52.0157000000	  41.4983000000	  23.1938000000
S	  47.1544000000	  47.3961000000	  24.6976000000
S	  48.7397000000	  48.0744000000	  25.8415000000
S	  49.8161000000	  46.2460000000	  26.0852000000
S	  52.8366000000	  44.6511000000	  22.7816000000
S	  54.7849000000	  45.0364000000	  22.0499000000
S	  55.2075000000	  44.2716000000	  20.0788000000
S	  52.9522000000	  44.8618000000	  24.9517000000
S	  51.9346000000	  46.5506000000	  25.7475000000
