53

Li	  38.1946000000	   8.0701800000	  31.2583000000
O	  37.5297000000	   7.1863300000	  29.8544000000
O	  37.9643000000	   9.0953400000	  29.2002000000
C	  36.2393000000	   7.6978700000	  29.7535000000
C	  36.5870000000	   9.1597000000	  29.5520000000
C	  38.2076000000	   7.8254600000	  28.8793000000
H	  35.8894000000	   7.1902500000	  28.8296000000
H	  35.6177000000	   7.4765500000	  30.6362000000
H	  35.9056000000	   9.6107100000	  28.8096000000
H	  36.4437000000	   9.8324500000	  30.4554000000
H	  39.2785000000	   7.6128100000	  28.8255000000
H	  37.8300000000	   7.5597800000	  27.8592000000
O	  36.0391000000	   5.7068800000	  34.1792000000
O	  37.5206000000	   6.5704400000	  32.5857000000
C	  37.1018000000	   4.7732900000	  33.9892000000
C	  37.8817000000	   5.2099900000	  32.7477000000
C	  36.2994000000	   6.7994000000	  33.3036000000
H	  37.7866000000	   4.9092400000	  34.8318000000
H	  36.7472000000	   3.8057900000	  34.0318000000
H	  38.8831000000	   4.8878100000	  32.8374000000
H	  37.6114000000	   4.6868700000	  31.8809000000
H	  35.4389000000	   7.0127100000	  32.5486000000
H	  36.4220000000	   7.6638200000	  33.9130000000
N	  39.3251000000	  11.7830000000	  32.8264000000
S	  38.7555000000	  10.5276000000	  33.5771000000
O	  38.0282000000	   9.5668300000	  32.7319000000
O	  39.7440000000	  10.0539000000	  34.5279000000
C	  37.4230000000	  11.3956000000	  34.6063000000
F	  36.5494000000	  12.0489000000	  33.8917000000
F	  37.7738000000	  12.3156000000	  35.5351000000
F	  36.6498000000	  10.4178000000	  35.1679000000
S	  39.9325000000	  11.7426000000	  31.3865000000
O	  40.0079000000	  10.4401000000	  30.7539000000
O	  41.0902000000	  12.6121000000	  31.1662000000
C	  38.5790000000	  12.4525000000	  30.4214000000
F	  37.3776000000	  12.0566000000	  30.8086000000
F	  38.6242000000	  13.7497000000	  30.5285000000
F	  38.6232000000	  12.0974000000	  29.0915000000
N	  42.4038000000	   8.1491100000	  31.8430000000
S	  42.9502000000	   9.4088000000	  32.7021000000
O	  43.1686000000	  10.5889000000	  31.9032000000
O	  42.3564000000	   9.5966300000	  34.0362000000
C	  44.5449000000	   8.8940700000	  33.0909000000
F	  45.3134000000	   9.7798000000	  33.7082000000
F	  45.2710000000	   8.6040000000	  32.0285000000
F	  44.4694000000	   7.8027200000	  33.8971000000
S	  41.1584000000	   7.2851400000	  32.1500000000
O	  39.9775000000	   7.7548200000	  31.4953000000
O	  41.0173000000	   6.8654200000	  33.4870000000
C	  41.6449000000	   5.7960500000	  31.1432000000
F	  42.7163000000	   5.1991000000	  31.6558000000
F	  40.7037000000	   4.8294300000	  31.1287000000
F	  41.8759000000	   6.2139800000	  29.8805000000
