46

Li	  10.7102000000	  28.2452000000	  18.8477000000
O	  11.5094000000	  26.6824000000	  19.6076000000
O	  12.2196000000	  24.9210000000	  20.7291000000
C	  10.5990000000	  25.6152000000	  19.3205000000
C	  11.1301000000	  24.3714000000	  20.0437000000
C	  12.6177000000	  25.9830000000	  19.9587000000
H	   9.6070200000	  25.8450000000	  19.7892000000
H	  10.4368000000	  25.2598000000	  18.3056000000
H	  10.4452000000	  23.9794000000	  20.8096000000
H	  11.4883000000	  23.6197000000	  19.3301000000
H	  13.0887000000	  25.6125000000	  19.0032000000
H	  13.2608000000	  26.6667000000	  20.6024000000
O	   9.7130900000	  28.8700000000	  20.4884000000
O	   9.3370300000	  29.5995000000	  22.4720000000
C	   8.3674900000	  29.3343000000	  20.3943000000
C	   8.0495700000	  29.7132000000	  21.7953000000
C	   9.9613600000	  28.5878000000	  21.7695000000
H	   8.2405700000	  30.1722000000	  19.6300000000
H	   7.8358800000	  28.5272000000	  19.8859000000
H	   7.6955000000	  30.7716000000	  21.8761000000
H	   7.3475700000	  28.9957000000	  22.2336000000
H	   9.5065900000	  27.6593000000	  22.1645000000
H	  10.9679000000	  28.5770000000	  22.0117000000
N	  13.2935000000	  30.2616000000	  21.6428000000
S	  12.7049000000	  30.3295000000	  23.0651000000
O	  11.5364000000	  31.1706000000	  23.2690000000
O	  12.6295000000	  28.9815000000	  23.5951000000
C	  13.9660000000	  31.1438000000	  24.0284000000
F	  13.5630000000	  31.3438000000	  25.3119000000
F	  14.2331000000	  32.3253000000	  23.5412000000
F	  15.0347000000	  30.3747000000	  24.1514000000
S	  12.6030000000	  30.5282000000	  20.2872000000
O	  11.6201000000	  31.5668000000	  20.3348000000
O	  12.3450000000	  29.3476000000	  19.5260000000
C	  13.9834000000	  31.3122000000	  19.3055000000
F	  14.9495000000	  30.4356000000	  19.0774000000
F	  13.5979000000	  31.8439000000	  18.1573000000
F	  14.4696000000	  32.3001000000	  19.9815000000
S	   9.2706300000	  28.3593000000	  17.3085000000
S	  11.0769000000	  28.8672000000	  16.2825000000
S	  12.7190000000	  27.7043000000	  16.7887000000
S	  15.7148000000	  25.3020000000	  14.0507000000
S	  17.1863000000	  26.6329000000	  14.2605000000
S	  18.4872000000	  26.6302000000	  12.5351000000
S	  13.6796000000	  26.0200000000	  13.9341000000
S	  12.6363000000	  25.9042000000	  15.7328000000
