38

Li	  20.1381000000	  31.7044000000	  22.1740000000
O	  20.3044000000	  35.3136000000	  22.8374000000
O	  20.5053000000	  33.3878000000	  21.6718000000
C	  19.6025000000	  35.5716000000	  21.5887000000
C	  19.7409000000	  34.2645000000	  20.8446000000
C	  21.1725000000	  34.2398000000	  22.5294000000
H	  18.6214000000	  35.8485000000	  21.7391000000
H	  20.0912000000	  36.3235000000	  20.9218000000
H	  18.7701000000	  33.9098000000	  20.6426000000
H	  20.3130000000	  34.5428000000	  19.9620000000
H	  22.0753000000	  34.6734000000	  22.0456000000
H	  21.6104000000	  33.7113000000	  23.3386000000
O	  21.1270000000	  30.9610000000	  23.4886000000
C	  22.0237000000	  29.9813000000	  22.8774000000
C	  23.4624000000	  30.6127000000	  23.0742000000
C	  22.0115000000	  28.6204000000	  23.5916000000
C	  21.5794000000	  29.8280000000	  21.4745000000
C	  20.9389000000	  31.0003000000	  24.9044000000
H	  23.5002000000	  31.6945000000	  22.8784000000
H	  23.9990000000	  30.3930000000	  24.0240000000
H	  24.1225000000	  30.2316000000	  22.4142000000
H	  22.4071000000	  28.6577000000	  24.5797000000
H	  20.9982000000	  28.2212000000	  23.6555000000
H	  22.5417000000	  27.8918000000	  22.9965000000
H	  22.2736000000	  29.2570000000	  20.7889000000
H	  20.6606000000	  29.2408000000	  21.4050000000
H	  21.4639000000	  30.7620000000	  20.8959000000
H	  20.2675000000	  30.1908000000	  25.1910000000
H	  21.9644000000	  30.9390000000	  25.3943000000
H	  20.5293000000	  31.9741000000	  25.1367000000
S	  20.3025000000	  31.8265000000	  31.8639000000
S	  19.6954000000	  29.8138000000	  31.3617000000
S	  18.0318000000	  30.0424000000	  30.0628000000
S	  16.9199000000	  30.9906000000	  25.0333000000
S	  17.6854000000	  31.9874000000	  23.3273000000
S	  18.3937000000	  30.8048000000	  21.6828000000
S	  17.9160000000	  31.5032000000	  26.7749000000
S	  18.2890000000	  29.6929000000	  27.9905000000
