27

Li	  56.0276000000	  19.4492000000	  36.9104000000
O	  54.9464000000	  20.6303000000	  37.7315000000
C	  54.2571000000	  19.9180000000	  38.7925000000
C	  55.3593000000	  19.0960000000	  39.5506000000
C	  53.6695000000	  20.8502000000	  39.8529000000
C	  53.0814000000	  18.9875000000	  38.3115000000
C	  54.1646000000	  21.4367000000	  36.8574000000
H	  54.9544000000	  18.6369000000	  40.4850000000
H	  55.6031000000	  18.2688000000	  38.8201000000
H	  56.1668000000	  19.8108000000	  39.6892000000
H	  52.9933000000	  20.2987000000	  40.5207000000
H	  54.4779000000	  21.1637000000	  40.5612000000
H	  53.0787000000	  21.6913000000	  39.5147000000
H	  52.8342000000	  18.3097000000	  39.1663000000
H	  52.1618000000	  19.4681000000	  37.9891000000
H	  53.4142000000	  18.2845000000	  37.5066000000
H	  53.4501000000	  20.8650000000	  36.2578000000
H	  53.6258000000	  22.1386000000	  37.4633000000
H	  54.8082000000	  21.9359000000	  36.2020000000
S	  55.9430000000	  18.0051000000	  35.3455000000
S	  54.9802000000	  19.1384000000	  33.8238000000
S	  56.1791000000	  20.7815000000	  33.4521000000
S	  58.2434000000	  23.4960000000	  30.5660000000
S	  58.9183000000	  25.1894000000	  31.6083000000
S	  58.5308000000	  27.1055000000	  30.8879000000
S	  58.8408000000	  21.7567000000	  31.4753000000
S	  57.2777000000	  20.4826000000	  31.7146000000
