52

Li	   8.6729100000	  10.1980000000	  58.6571000000
O	   8.8662000000	  10.9827000000	  57.0655000000
C	  10.0806000000	  11.5745000000	  56.6412000000
C	  11.0800000000	  11.6624000000	  57.8294000000
C	  10.7192000000	  10.6840000000	  55.5561000000
C	   9.6923100000	  13.0031000000	  56.1544000000
C	   7.7867500000	  10.9743000000	  56.1571000000
H	  11.4446000000	  10.7002000000	  58.2349000000
H	  11.9072000000	  12.1835000000	  57.4125000000
H	  10.5569000000	  12.2551000000	  58.5634000000
H	  10.7928000000	   9.7545600000	  55.9611000000
H	  10.0870000000	  10.7150000000	  54.6440000000
H	  11.7274000000	  11.0363000000	  55.4424000000
H	  10.5525000000	  13.5907000000	  56.2966000000
H	   9.3630000000	  13.0257000000	  55.0451000000
H	   9.0093800000	  13.3924000000	  56.8645000000
H	   6.9941000000	  10.3379000000	  56.5775000000
H	   7.2683100000	  11.9552000000	  56.1427000000
H	   8.1236600000	  10.7951000000	  55.1187000000
O	   9.8190400000	   8.7348800000	  59.3297088588
C	   9.8593900000	   7.3883500000	  58.9041000000
C	   9.1815000000	   6.5678200000	  60.0178388588
C	   9.0788400000	   7.2985400000	  57.5868000000
C	  11.2641000000	   6.6695200000	  58.6529000000
C	  10.7251000000	   9.0992600000	  60.3921888588
H	   9.5469600000	   6.8128200000	  60.9491288588
H	   8.1198900000	   6.7741600000	  60.1220488588
H	   9.1304900000	   5.4341500000	  59.9139188588
H	   8.2389700000	   7.9487200000	  57.7204000000
H	   9.6653100000	   7.5474400000	  56.7367000000
H	   8.7332700000	   6.3331900000	  57.3623000000
H	  11.2440000000	   5.7158100000	  58.1133000000
H	  11.8920000000	   7.3492700000	  57.9909000000
H	  11.7917000000	   6.4314500000	  59.5854388588
H	  11.7462000000	   8.9415700000	  60.1151788588
H	  10.8621000000	  10.2007000000	  60.5082288588
H	  10.4843000000	   8.6596700000	  61.3947088588
N	   6.4685700000	  12.0891000000	  60.5904688588
S	   5.9064100000	  10.8013000000	  59.9583388588
O	   4.5607800000	  10.9812000000	  59.5271288588
O	   6.8567400000	  10.0417000000	  59.1627888588
C	   5.6521400000	   9.7856400000	  61.3921888588
F	   4.9857600000	  10.4487000000	  62.3122688588
F	   6.8155300000	   9.4755600000	  61.8364888588
F	   4.9998700000	   8.6845200000	  61.1300088588
S	   7.9224100000	  12.3452000000	  60.8975788588
O	   8.7796900000	  11.5172000000	  60.1121388588
O	   8.2121000000	  12.4324000000	  62.2868188588
C	   8.1818200000	  14.0378000000	  60.1696988588
F	   7.6641200000	  14.2655000000	  58.9682000000
F	   7.6563900000	  14.9926000000	  60.9042788588
F	   9.4222800000	  14.3256000000	  60.0922288588
