42

Li	  33.6077000000	  47.6062000000	  55.2613000000
O	  32.6004000000	  48.9915000000	  54.4057000000
C	  32.0672000000	  48.9657000000	  53.0718000000
C	  31.3718000000	  47.5605000000	  53.0664000000
C	  30.9487000000	  49.9628000000	  52.8661000000
C	  33.1540000000	  49.0421000000	  51.9852000000
C	  33.4367000000	  50.0964000000	  54.7122000000
H	  32.1056000000	  46.7560000000	  53.3082000000
H	  30.6687000000	  47.4078000000	  53.9215000000
H	  30.9450000000	  47.2695000000	  52.1271000000
H	  31.2457000000	  50.8135000000	  53.4677000000
H	  30.7895000000	  50.2048000000	  51.8255000000
H	  29.9314000000	  49.7038000000	  53.1467000000
H	  32.9343000000	  48.4956000000	  51.0731000000
H	  33.3569000000	  49.9307000000	  51.5798000000
H	  34.1547000000	  48.6682000000	  52.1967000000
H	  32.9124000000	  51.0677000000	  54.6074000000
H	  33.7697000000	  50.1052000000	  55.7643000000
H	  34.2452000000	  50.1205000000	  54.0091000000
N	  36.4015000000	  45.0136000000	  53.0523000000
S	  37.9127000000	  44.6322000000	  53.3174000000
O	  38.5553000000	  45.6609000000	  54.0831000000
O	  38.2318000000	  43.1848000000	  53.4315000000
C	  38.5065000000	  44.9842000000	  51.6103000000
F	  38.4851000000	  46.2876000000	  51.3645000000
F	  37.7255000000	  44.3533000000	  50.6729000000
F	  39.7628000000	  44.5863000000	  51.4080000000
S	  35.2943000000	  45.1696000000	  54.1645000000
O	  34.7304000000	  46.4800000000	  54.3622000000
O	  35.6545000000	  44.5287000000	  55.4152000000
C	  33.9449000000	  44.0810000000	  53.4472000000
F	  33.6202000000	  44.4746000000	  52.1995000000
F	  34.3394000000	  42.8250000000	  53.4170000000
F	  32.8592000000	  44.1037000000	  54.1495000000
S	  34.0384000000	  47.9520000000	  57.1724000000
S	  32.8694000000	  46.4733000000	  58.0797000000
S	  31.2956000000	  45.8473000000	  56.7755000000
S	  26.3597000000	  47.2784000000	  58.3909000000
S	  24.8282000000	  47.9624000000	  57.0777000000
S	  24.9651000000	  50.0586000000	  56.4004000000
S	  27.8145000000	  45.9845000000	  57.5840000000
S	  29.5489000000	  47.0150000000	  56.9475000000
