42

Li	  16.5691000000	  43.0206000000	   3.6110900000
O	  16.6235000000	  38.9786000000	   3.1824200000
O	  16.3180000000	  41.2173000000	   3.0695700000
C	  16.2856000000	  39.2804000000	   1.8616200000
C	  16.3343000000	  40.7982000000	   1.7105400000
C	  16.1417000000	  40.0356000000	   3.8842700000
H	  17.0334000000	  38.7745000000	   1.2712000000
H	  15.2608000000	  38.9211000000	   1.6574500000
H	  17.3215000000	  41.1944000000	   1.3561400000
H	  15.5000000000	  41.2951000000	   1.1581700000
H	  15.0718000000	  39.9347000000	   4.1587200000
H	  16.6969000000	  40.2499000000	   4.8607200000
N	  12.9541000000	  42.8139000000	   2.0640100000
S	  13.1831000000	  43.1432000000	   3.6024500000
O	  12.1353000000	  42.8127000000	   4.5488000000
O	  14.5296000000	  43.1891000000	   4.1371900000
C	  12.8510000000	  44.9269000000	   3.4439400000
F	  13.7395000000	  45.4680000000	   2.6742300000
F	  12.8393000000	  45.6528000000	   4.5197300000
F	  11.7375000000	  45.2302000000	   2.7694000000
S	  12.0412000000	  41.5872000000	   1.6363800000
O	  10.8639000000	  41.5273000000	   2.3806600000
O	  12.8065000000	  40.3507000000	   1.4658900000
C	  11.7147000000	  41.9973000000	  -0.1052688588
F	  12.8277000000	  41.9479000000	  -0.8370688588
F	  10.9538000000	  41.0805000000	  -0.6438688588
F	  11.2025000000	  43.2730000000	  -0.2426688588
N	  17.5233000000	  45.9162000000	   0.4913311412
S	  17.4846000000	  47.3341000000	   1.2282200000
O	  17.1952000000	  47.2586000000	   2.6762500000
O	  18.5208000000	  48.1717000000	   0.7582311412
C	  15.8492000000	  47.9011000000	   0.4925311412
F	  15.3617000000	  48.9223000000	   1.0925400000
F	  14.8957000000	  46.9769000000	   0.5413311412
F	  16.0857000000	  48.2781000000	  -0.7114688588
S	  17.3899000000	  44.4689000000	   1.0725000000
O	  16.7166000000	  43.4702000000	   0.3208311412
O	  17.2179000000	  44.4192000000	   2.5150700000
C	  19.1222000000	  43.9330000000	   0.8112311412
F	  19.5454000000	  44.1174000000	  -0.4436688588
F	  20.0624000000	  44.4968000000	   1.5579200000
F	  19.2704000000	  42.6732000000	   1.1417900000
