49

Li	  20.6355000000	  47.1631000000	   1.0649800000
O	  22.4286000000	  47.4023000000	   1.8950000000
O	  20.9520000000	  46.4075000000	   3.2199600000
C	  22.2862000000	  48.2575000000	   3.0505500000
C	  21.2540000000	  47.6283000000	   3.8427300000
C	  22.0587000000	  46.1400000000	   2.4279500000
H	  23.1545000000	  48.1054000000	   3.6212600000
H	  22.1491000000	  49.2948000000	   2.8490400000
H	  21.5973000000	  47.5322000000	   4.9042600000
H	  20.3306000000	  48.2323000000	   3.8304100000
H	  21.9915000000	  45.2678000000	   1.7999300000
H	  22.9842000000	  45.7925000000	   2.9552500000
O	  18.2090000000	  50.3586000000	  -0.0254688588
O	  19.9894000000	  49.0248000000	   0.5416311412
C	  19.1490000000	  50.4216000000	  -1.0711688588
C	  20.0963000000	  49.2990000000	  -0.8427688588
C	  19.0257000000	  49.9057000000	   1.0555200000
H	  18.6811000000	  50.1893000000	  -2.0267688588
H	  19.7245000000	  51.3272000000	  -1.0456688588
H	  19.7568000000	  48.3971000000	  -1.3709688588
H	  21.1373000000	  49.4623000000	  -1.1661688588
H	  19.6094000000	  50.6400000000	   1.5990200000
H	  18.3308000000	  49.3794000000	   1.7490900000
O	  21.0925000000	  46.1322000000	  -0.6316688588
O	  21.6996000000	  47.2007000000	  -2.4830688588
C	  20.4627000000	  45.4216000000	  -1.7183688588
C	  20.9680000000	  46.0613000000	  -2.9642688588
C	  22.2013000000	  46.7387000000	  -1.2304688588
H	  20.6102000000	  44.3067000000	  -1.7194688588
H	  19.4147000000	  45.6172000000	  -1.5510688588
H	  21.6517000000	  45.5202000000	  -3.5033688588
H	  20.0744000000	  46.2997000000	  -3.6530688588
H	  22.5673000000	  47.5303000000	  -0.6541688588
H	  22.9408000000	  46.0121000000	  -1.4994688588
N	  16.4794000000	  47.1023000000	   2.4515400000
S	  17.5698000000	  46.0523000000	   2.0868200000
O	  18.8155000000	  46.4602000000	   1.4723300000
O	  17.7232000000	  44.9905000000	   3.0553900000
C	  16.7781000000	  45.2312000000	   0.7224311412
F	  15.5972000000	  44.7864000000	   1.1195500000
F	  17.4509000000	  44.2334000000	   0.2489311412
F	  16.6433000000	  46.1050000000	  -0.3045688588
S	  15.4054000000	  47.2186000000	   3.5737200000
O	  15.4475000000	  46.0886000000	   4.4903500000
O	  14.0816000000	  47.7090000000	   3.1899000000
C	  16.1705000000	  48.6280000000	   4.5498600000
F	  15.7340000000	  49.7691000000	   4.2450800000
F	  15.8631000000	  48.5722000000	   5.8003900000
F	  17.4801000000	  48.6763000000	   4.5771400000
