67

Li	  15.5593000000	  20.2967000000	  34.3945000000
O	  19.7719000000	  19.0874000000	  34.1410000000
O	  17.6158000000	  19.8678000000	  34.3453000000
C	  19.8594000000	  20.3585000000	  34.6872000000
C	  18.4967000000	  20.9591000000	  34.3175000000
C	  18.4708000000	  18.8666000000	  33.8320000000
H	  20.0562000000	  20.3452000000	  35.7800000000
H	  20.7627000000	  20.9658000000	  34.3498000000
H	  18.1571000000	  21.7259000000	  35.0557000000
H	  18.5616000000	  21.4857000000	  33.4331000000
H	  18.3562000000	  18.9214000000	  32.7536000000
H	  18.1436000000	  17.7698000000	  34.0476000000
O	  15.2713000000	  19.2468000000	  36.1633000000
O	  15.5401000000	  19.3818000000	  38.3540000000
C	  13.9920000000	  18.9982000000	  36.6572000000
C	  14.1847000000	  18.9804000000	  38.1985000000
C	  16.0821000000	  18.8495000000	  37.2003000000
H	  13.4486000000	  19.8617000000	  36.2191000000
H	  13.4813000000	  18.0895000000	  36.2911000000
H	  13.5026000000	  19.6620000000	  38.6944000000
H	  14.0752000000	  17.9095000000	  38.6117000000
H	  16.1841000000	  17.7334000000	  37.3397000000
H	  17.1213000000	  19.2366000000	  37.0651000000
O	  15.3823000000	  23.9871000000	  35.5138000000
O	  15.4245000000	  21.8352000000	  35.3212000000
C	  15.6434000000	  23.5693000000	  36.8041000000
C	  15.7723000000	  22.0815000000	  36.6429000000
C	  14.7175000000	  22.9479000000	  34.9112000000
H	  16.4897000000	  24.0426000000	  37.2762000000
H	  14.7472000000	  23.7436000000	  37.4159000000
H	  16.8554000000	  21.9493000000	  36.8978000000
H	  15.1133000000	  21.6488000000	  37.3780000000
H	  13.6841000000	  22.9327000000	  35.1734000000
H	  14.6993000000	  23.0669000000	  33.7803000000
O	  14.1485000000	  19.3145000000	  33.1389000000
C	  13.9833000000	  18.0107000000	  32.6051000000
C	  15.2492000000	  17.1731000000	  32.9540000000
C	  12.7011000000	  17.3227000000	  33.2419000000
C	  13.7647000000	  18.2104000000	  31.0603000000
C	  12.9867000000	  20.1441000000	  33.3475000000
H	  15.4284000000	  17.3665000000	  33.9968000000
H	  14.9888000000	  16.1340000000	  32.8032000000
H	  16.0418000000	  17.5190000000	  32.3486000000
H	  12.6956000000	  17.4126000000	  34.3220000000
H	  11.8124000000	  17.6574000000	  32.7818000000
H	  12.7557000000	  16.2729000000	  33.0457000000
H	  13.6162000000	  17.3015000000	  30.5220000000
H	  12.8547000000	  18.7079000000	  30.7837000000
H	  14.5576000000	  18.6378000000	  30.4724000000
H	  12.8111000000	  20.3082000000	  34.3939000000
H	  13.1661000000	  21.0733000000	  32.8433000000
H	  12.0660000000	  19.7486000000	  32.8655000000
N	  15.4336000000	  21.5752000000	  30.1135000000
S	  14.4238000000	  22.5717000000	  29.3877000000
O	  13.8527000000	  23.4758000000	  30.2938000000
O	  14.8074000000	  23.0593000000	  28.0898000000
C	  12.9809000000	  21.3851000000	  29.0909000000
F	  13.3309000000	  20.2784000000	  28.5018000000
F	  12.0263000000	  21.9368000000	  28.3495000000
F	  12.3490000000	  20.9887000000	  30.1315000000
S	  16.5409000000	  21.9888000000	  31.1227000000
O	  16.2716000000	  21.3273000000	  32.4240000000
O	  16.9514000000	  23.3676000000	  31.0863000000
C	  17.9134000000	  21.0860000000	  30.4065000000
F	  18.1867000000	  21.6357000000	  29.2658000000
F	  18.9867000000	  21.1889000000	  31.1215000000
F	  17.7099000000	  19.7938000000	  30.1562000000
