35

Li	  57.3317000000	  20.3394000000	  36.1864000000
O	  55.5867000000	  20.6264000000	  37.0834000000
C	  55.2462000000	  19.8112000000	  38.2257000000
C	  56.1526000000	  18.6196000000	  38.2783000000
C	  55.4491000000	  20.6383000000	  39.4937000000
C	  53.7628000000	  19.2656000000	  38.1563000000
C	  54.6171000000	  21.6434000000	  36.8812000000
H	  56.1233000000	  17.9814000000	  37.3601000000
H	  57.1675000000	  18.8850000000	  38.4736000000
H	  55.7334000000	  18.0636000000	  39.0982000000
H	  55.5738000000	  19.9615000000	  40.3373000000
H	  56.4270000000	  21.1995000000	  39.4014000000
H	  54.6769000000	  21.4102000000	  39.6510000000
H	  53.6132000000	  18.9012000000	  37.1435000000
H	  53.5685000000	  18.3843000000	  38.8028000000
H	  52.9733000000	  19.9409000000	  38.3864000000
H	  53.6547000000	  21.2254000000	  36.7318000000
H	  54.4612000000	  22.3453000000	  37.7222000000
H	  54.8890000000	  22.1084000000	  35.9155000000
S	  64.9544332507	  17.9994000000	  30.5222000000
S	  64.2259232507	  16.7177000000	  32.0981000000
S	  65.1496032507	  17.5804000000	  33.8444000000
S	  60.6179132507	  19.2320000000	  35.6058000000
S	  59.6029432507	  19.4867000000	  37.4024000000
S	  58.6014000000	  21.3497000000	  37.5093000000
S	  62.7048732507	  19.4261000000	  35.6786000000
S	  63.8914632507	  17.6268000000	  35.4375000000
S	  57.0827000000	  18.9872000000	  34.5351000000
S	  56.9539000000	  20.9795000000	  33.8794000000
S	  58.8596000000	  21.7243000000	  33.3393000000
S	  60.7199632507	  24.8537000000	  29.7406000000
S	  61.3861532507	  26.3593000000	  31.0432000000
S	  59.9949832507	  27.8899000000	  31.4486000000
S	  60.9734232507	  23.0368000000	  30.6276000000
S	  59.1552932507	  22.0513000000	  31.2381000000
