35

Li	  23.6647000000	   8.3811500000	  57.2998000000
O	  24.4336000000	   9.0810600000	  58.9976088588
C	  24.3230000000	  10.2324000000	  59.8575188588
C	  25.5292000000	  11.1170000000	  59.6946188588
C	  23.0935000000	  11.0888000000	  59.4484888588
C	  24.1285000000	   9.7683700000	  61.3369288588
C	  25.3239000000	   8.0392500000	  59.3794788588
H	  26.4382000000	  10.5737000000	  59.9750988588
H	  25.6628000000	  11.5175000000	  58.6566000000
H	  25.5339000000	  11.9828000000	  60.3368388588
H	  23.0218000000	  11.9744000000	  60.1456988588
H	  23.0620000000	  11.6167000000	  58.5116000000
H	  22.1653000000	  10.5077000000	  59.4749188588
H	  25.0235000000	   9.3956200000	  61.7556488588
H	  23.8068000000	  10.5130000000	  61.9562288588
H	  23.2857000000	   9.0420400000	  61.3140288588
H	  26.4221000000	   8.3900600000	  59.4083488588
H	  24.9528000000	   7.5273700000	  60.2651788588
H	  25.2424000000	   7.2151600000	  58.6290000000
S	  20.9742000000	   6.6942400000	  46.2006000000
S	  22.2039000000	   7.2064100000	  47.8050000000
S	  21.1628000000	   7.2361600000	  49.6288000000
S	  21.4838000000	   6.6789600000	  54.2151000000
S	  22.0708000000	   5.6340800000	  55.9431000000
S	  22.0814000000	   6.9804600000	  57.6059000000
S	  22.8557000000	   6.8290400000	  52.6141000000
S	  22.1671000000	   5.8931100000	  50.9022000000
S	  20.4593000000	  13.1829000000	  48.0315000000
S	  21.1885000000	  11.3766000000	  48.6770000000
S	  20.5069000000	  10.5833000000	  50.5174000000
S	  22.1082000000	  10.3687000000	  55.4394000000
S	  24.0176000000	  10.1847000000	  56.2743000000
S	  25.0381000000	   8.4260200000	  55.7114000000
S	  21.9523000000	  11.4963000000	  53.6011000000
S	  22.1531000000	  10.3596000000	  51.8386000000
