60

Li	  33.2434000000	  58.7517000000	  21.8067000000
O	  32.8186000000	  59.0203687583	  24.1814000000
O	  31.5099000000	  59.0675587583	  26.0300000000
C	  33.3233000000	  60.1287387583	  24.9729000000
C	  32.2187000000	  60.3003287583	  26.0075000000
C	  31.5345000000	  58.7437000000	  24.6920000000
H	  34.2545000000	  60.0152087583	  25.5198000000
H	  33.3918000000	  61.0351887583	  24.2949000000
H	  32.6513000000	  60.5697887583	  26.9549000000
H	  31.4658000000	  61.0672787583	  25.6957000000
H	  30.8058000000	  59.3278387583	  24.1474000000
H	  31.3177000000	  57.7134000000	  24.4271000000
O	  34.8987000000	  57.8031000000	  22.4534000000
O	  36.9001000000	  57.3088000000	  23.5202000000
C	  34.9909000000	  56.3992000000	  22.6940000000
C	  36.5392000000	  56.1930000000	  22.7473000000
C	  36.1312000000	  58.2804000000	  22.9208000000
H	  34.6330000000	  56.1812000000	  23.7085000000
H	  34.4752000000	  55.7824000000	  21.9872000000
H	  36.8085000000	  55.2660000000	  23.3416000000
H	  37.0795000000	  56.0840000000	  21.7927000000
H	  36.6505000000	  58.6925000000	  22.0366000000
H	  35.8639000000	  59.1358287583	  23.5487000000
O	  29.2854000000	  57.6038000000	  21.8551000000
O	  31.3617000000	  58.2475000000	  21.3154000000
C	  30.0727000000	  56.4390000000	  21.8038000000
C	  31.3455000000	  56.8801000000	  20.9451000000
C	  30.0151000000	  58.6324000000	  21.3418000000
H	  30.3188000000	  56.3085000000	  22.8366000000
H	  29.5687000000	  55.5289000000	  21.5116000000
H	  32.2963000000	  56.3349000000	  21.2725000000
H	  31.1060000000	  56.6957000000	  19.8802000000
H	  29.5920000000	  58.7916000000	  20.3475000000
H	  29.8876000000	  59.5373087583	  21.8544000000
O	  33.8580000000	  62.9893687583	  22.0743000000
O	  33.4499000000	  60.9192287583	  21.6588000000
C	  32.4680000000	  63.0240487583	  21.8762000000
C	  32.1547000000	  61.5377887583	  21.5996000000
C	  34.3220000000	  61.8847687583	  21.3872000000
H	  31.9294000000	  63.3651487583	  22.7888000000
H	  32.1916000000	  63.5100187583	  21.0009000000
H	  31.4999000000	  61.1877287583	  22.3843000000
H	  31.6953000000	  61.5087587583	  20.5962000000
H	  34.4996000000	  62.1420687583	  20.3072000000
H	  35.3559000000	  61.6047387583	  21.7132000000
N	  32.5721000000	  59.8568587583	  18.6638000000
S	  32.3006000000	  61.0033687583	  17.6664000000
O	  32.3123000000	  62.2878787583	  18.3664000000
O	  33.0022000000	  60.8071787583	  16.4206000000
C	  30.5829000000	  60.7514287583	  17.2571000000
F	  30.1584000000	  61.8194287583	  16.6093000000
F	  29.7733000000	  60.5806887583	  18.2561000000
F	  30.3905000000	  59.7031587583	  16.4541000000
S	  33.8421000000	  58.8972000000	  18.7526000000
O	  33.8340000000	  58.1318000000	  20.0144000000
O	  35.1243000000	  59.4595487583	  18.2902000000
C	  33.3601000000	  57.6016000000	  17.5891000000
F	  32.1175000000	  57.1768000000	  17.6564000000
F	  33.6259000000	  57.9091000000	  16.3278000000
F	  34.0952000000	  56.5161000000	  17.8715000000
