35

Li	  11.4389000000	  20.3471000000	  37.0729000000
O	  10.9033000000	  20.8203000000	  38.8399000000
C	  11.2305000000	  22.1895000000	  38.9504000000
C	   9.9978800000	  22.9503000000	  39.4074000000
C	  12.3624000000	  22.4671000000	  39.9892000000
C	  11.5965000000	  22.6096000000	  37.5080000000
C	  10.4104000000	  20.1561000000	  39.9612000000
H	   9.0882500000	  22.5430000000	  38.9578000000
H	   9.6610800000	  22.9027000000	  40.4223000000
H	  10.1412000000	  24.0611000000	  39.0969000000
H	  12.0622000000	  22.1196000000	  40.9900000000
H	  13.2177000000	  21.8987000000	  39.6528000000
H	  12.6184000000	  23.5636000000	  39.9430000000
H	  11.8650000000	  23.6287000000	  37.3928000000
H	  12.4315000000	  22.0527000000	  37.0058000000
H	  10.6888000000	  22.3831000000	  36.8393000000
H	  11.0783000000	  20.1774000000	  40.8232000000
H	   9.4163600000	  20.3887000000	  40.3003000000
H	  10.4493000000	  19.1159000000	  39.6095000000
S	  10.5716000000	  20.5604000000	  34.7714000000
S	   9.6249800000	  19.4367000000	  36.3042000000
S	   7.5200800000	  19.7108000000	  36.2143000000
S	   4.1971100000	  20.0513000000	  33.1999000000
S	   4.4755100000	  22.1990000000	  32.8520000000
S	   3.0197100000	  23.3591000000	  33.8359000000
S	   6.1187800000	  19.0470000000	  32.9591000000
S	   6.8273400000	  18.2774000000	  34.7755000000
S	   7.3096500000	  13.4873000000	  36.1890000000
S	   8.3321600000	  12.1423000000	  37.3469000000
S	  10.3050000000	  11.8345000000	  36.9931000000
S	  11.5118000000	  16.4471000000	  37.7038000000
S	  13.0892000000	  17.7331000000	  38.2777000000
S	  13.3182000000	  19.4660000000	  37.1785000000
S	  12.2538000000	  14.5969000000	  37.0614000000
S	  11.7865000000	  12.8179000000	  38.1399000000
