49

Li	  34.7341000000	  57.8733000000	  31.6648000000
O	  34.9072000000	  58.1728000000	  33.4392000000
C	  33.8350000000	  58.5751000000	  34.2803000000
C	  33.3038000000	  57.3501000000	  35.1145000000
C	  34.2065000000	  59.7634987583	  35.2030000000
C	  32.8356000000	  59.1041587583	  33.2686000000
C	  36.1032000000	  57.6822000000	  34.0770000000
H	  33.8829000000	  56.7979000000	  35.9315000000
H	  32.3956000000	  57.6474000000	  35.6253000000
H	  32.9064000000	  56.5540000000	  34.4690000000
H	  34.7792000000	  60.4885987583	  34.7509000000
H	  33.2887000000	  60.1076887583	  35.7241000000
H	  34.7599000000	  59.4451187583	  36.0559000000
H	  31.9708000000	  59.4337987583	  33.8081000000
H	  33.3077000000	  59.9869887583	  32.8794000000
H	  32.6113000000	  58.4177000000	  32.4242000000
H	  35.9104000000	  57.0081000000	  34.9412000000
H	  36.8210000000	  57.1451000000	  33.5001000000
H	  36.6439000000	  58.4951000000	  34.4373000000
N	  32.2882000000	  56.3591000000	  29.5089000000
S	  32.6009000000	  55.5085000000	  30.8597000000
O	  33.5325000000	  56.1926000000	  31.7614000000
O	  31.3975000000	  54.9765000000	  31.4565000000
C	  33.5634000000	  54.0055000000	  30.4046000000
F	  33.6947000000	  53.2642000000	  31.5020000000
F	  34.7370000000	  54.2475000000	  29.8979000000
F	  32.8810000000	  53.2156000000	  29.5902000000
S	  32.5227000000	  57.9075000000	  29.1954000000
O	  32.6958000000	  58.0805000000	  27.7448000000
O	  33.4806000000	  58.5492000000	  30.0961000000
C	  30.8817000000	  58.7334000000	  29.5805000000
F	  29.9717000000	  58.2894000000	  28.7240000000
F	  30.4149000000	  58.3632000000	  30.7873000000
F	  30.8680000000	  60.0342587583	  29.5049000000
N	  38.1527000000	  58.1883000000	  30.4939000000
S	  37.4794000000	  56.8394000000	  30.1707000000
O	  38.3294000000	  55.7212000000	  30.5530000000
O	  36.0273000000	  56.8096000000	  30.4050000000
C	  37.5928000000	  56.8562000000	  28.3227000000
F	  38.7890000000	  57.1382000000	  27.8844000000
F	  36.8496000000	  57.7792000000	  27.6840000000
F	  37.2445000000	  55.6635000000	  27.8281000000
S	  37.5662000000	  59.5010987583	  31.1593000000
O	  38.5336000000	  60.0705987583	  32.0924000000
O	  36.1905000000	  59.4505487583	  31.4946000000
C	  37.5035000000	  60.6699187583	  29.7408000000
F	  38.6196000000	  60.7222787583	  29.1061000000
F	  36.5400000000	  60.4239787583	  28.8472000000
F	  37.1677000000	  61.8255187583	  30.3034000000
