43

Li	   1.4016600000	  23.9883000000	  38.2701000000
O	   3.5573700000	  26.0060000000	  35.4103000000
O	   2.5641400000	  24.6381000000	  36.8313000000
C	   4.5539300000	  25.1708000000	  35.8913000000
C	   3.8523300000	  24.2082000000	  36.8373000000
C	   2.5320600000	  25.9556000000	  36.3064000000
H	   5.0608600000	  24.6669000000	  35.0525000000
H	   5.3055300000	  25.7293000000	  36.5002000000
H	   3.8644700000	  23.2240000000	  36.3639000000
H	   4.2246200000	  24.0942000000	  37.8384000000
H	   2.7801900000	  26.6705000000	  37.1266000000
H	   1.6128400000	  26.3068000000	  35.8715000000
N	   3.6929600000	  25.1551000000	  41.5023000000
S	   3.1358000000	  25.7989000000	  40.1659000000
O	   4.2504200000	  26.0684000000	  39.2969000000
O	   1.9231600000	  25.3368000000	  39.5689000000
C	   2.6989200000	  27.4921000000	  40.6957000000
F	   2.1684100000	  27.4920000000	  41.9024000000
F	   1.8149300000	  28.1241000000	  39.9206000000
F	   3.8279300000	  28.2320000000	  40.7938000000
S	   4.2315000000	  23.7360000000	  41.7242000000
O	   4.5188700000	  23.0340000000	  40.5167000000
O	   3.6063500000	  22.9956000000	  42.8004000000
C	   5.9100000000	  24.1124000000	  42.4090000000
F	   6.4740400000	  22.9720000000	  42.8136000000
F	   6.7002800000	  24.7864000000	  41.6157000000
F	   5.9128100000	  24.8613000000	  43.5048000000
S	   1.0743200000	  15.9204000000	  29.9234000000
S	   2.5907800000	  17.3461000000	  30.1931000000
S	   3.2067000000	  17.5604000000	  32.1447000000
S	   2.1665400000	  19.5450000000	  36.2773000000
S	   1.5746200000	  21.4544000000	  36.9588000000
S	   1.7726700000	  21.9078000000	  39.0189000000
S	   3.6567600000	  19.8830000000	  34.8137000000
S	   2.9615900000	  19.5170000000	  32.8366000000
S	  -0.8051532507	  24.0674000000	  37.4806000000
S	  -1.1072532507	  25.8592000000	  38.6375000000
S	  -1.1881532507	  27.6165000000	  37.3196000000
S	   0.2473467493	  32.2371000000	  35.7792000000
S	   2.1495600000	  33.0805000000	  36.3318000000
S	   2.8682800000	  34.2100000000	  34.6786000000
S	   0.3598467493	  30.1658000000	  35.5488000000
S	   0.3003467493	  29.0390000000	  37.3412000000
