49

Li	  48.6985000000	  44.1616000000	  10.4763000000
O	  48.9544000000	  40.5694000000	  11.6707000000
O	  49.3439000000	  42.8750000000	  11.6911000000
C	  50.1322000000	  40.9104000000	  10.8623000000
C	  50.5999000000	  42.3123000000	  11.3106000000
C	  48.8157000000	  41.7736000000	  12.3796000000
H	  50.8740000000	  40.0553000000	  10.9360000000
H	  49.7896000000	  40.9199000000	   9.8049900000
H	  51.3658000000	  42.2944000000	  12.1094000000
H	  51.0483000000	  42.8064000000	  10.5171000000
H	  47.7416000000	  41.9921000000	  12.6573000000
H	  49.2593000000	  41.6298000000	  13.3542000000
O	  47.5991000000	  42.9407000000	   9.3915000000
O	  47.3794000000	  40.8012000000	   8.6178100000
C	  47.6852000000	  43.0704000000	   7.9574400000
C	  47.4551000000	  41.6165000000	   7.4040800000
C	  46.8503000000	  41.7327000000	   9.5816000000
H	  46.9807000000	  43.7779000000	   7.5422100000
H	  48.6638000000	  43.4028000000	   7.6570600000
H	  46.5259000000	  41.4257000000	   6.7471300000
H	  48.3339000000	  41.3877000000	   6.8955400000
H	  46.7964000000	  41.4039000000	  10.5428000000
H	  45.8799000000	  42.0437000000	   9.2663400000
O	  49.9040000000	  45.4040000000	  11.0624000000
C	  50.7175000000	  46.0589000000	  10.0410000000
C	  52.2626000000	  45.9373000000	  10.2611000000
C	  50.5676000000	  45.3374000000	   8.7460500000
C	  50.2290000000	  47.4829000000	   9.8052600000
C	  50.2247000000	  45.8008000000	  12.3881000000
H	  52.9312000000	  46.4252000000	   9.4439100000
H	  52.5808000000	  46.4916000000	  11.1691000000
H	  52.5713000000	  44.9012000000	  10.3548000000
H	  51.0304000000	  46.0311000000	   7.9168500000
H	  50.9212000000	  44.2815000000	   8.6737900000
H	  49.5875000000	  45.3128000000	   8.3133700000
H	  49.3020000000	  47.4518000000	   9.2976600000
H	  50.1519000000	  47.8771000000	  10.7799000000
H	  50.8932000000	  48.0425000000	   9.1497500000
H	  49.3447000000	  45.6322000000	  13.0367000000
H	  51.0826000000	  45.1885000000	  12.6456000000
H	  50.4834000000	  46.8367000000	  12.5654000000
S	  39.5356000000	  40.4919000000	  10.4007000000
S	  40.3337000000	  41.9576000000	  11.6767000000
S	  40.6194000000	  41.3386000000	  13.6245000000
S	  44.8010000000	  43.0048000000	  12.7600000000
S	  46.0888000000	  44.6704000000	  12.8559000000
S	  46.7590000000	  45.5740000000	  10.9777000000
S	  43.9525000000	  42.1725000000	  14.5578000000
S	  41.8798000000	  42.7190000000	  14.5882000000
