53

Li	  44.5152000000	  11.2868000000	   6.0775600000
O	  46.9986000000	  12.4643000000	   9.0368500000
O	  45.8081000000	  11.4394000000	   7.3584100000
C	  47.0578000000	  11.0747000000	   9.2835700000
C	  46.6841000000	  10.4771000000	   7.9014800000
C	  46.0843000000	  12.6369000000	   7.9831500000
H	  47.9993000000	  10.7561000000	   9.6140100000
H	  46.3311000000	  10.9207000000	  10.0745000000
H	  47.5782000000	  10.3769000000	   7.2092000000
H	  46.1606000000	   9.4914200000	   7.9684300000
H	  45.2142000000	  13.1616000000	   8.4654900000
H	  46.4843000000	  13.3081000000	   7.2667800000
O	  43.4411000000	  10.1005000000	   7.2050200000
C	  42.6540000000	   9.2103000000	   6.3775500000
C	  43.7636000000	   8.3734000000	   5.6682400000
C	  41.7527000000	   8.2653800000	   7.2060900000
C	  41.7926000000	  10.0089000000	   5.3620700000
C	  42.7213000000	  10.7025000000	   8.3338100000
H	  43.3069000000	   7.5598300000	   5.2146500000
H	  44.2326000000	   8.9199200000	   4.8453300000
H	  44.5530000000	   8.1475600000	   6.3166700000
H	  40.8704000000	   8.7293200000	   7.5420100000
H	  41.4209000000	   7.4436000000	   6.6182000000
H	  42.2888000000	   7.8748000000	   8.1058400000
H	  42.2668000000	  10.3113000000	   4.4200400000
H	  40.9388000000	   9.3831100000	   4.9841600000
H	  41.4762000000	  10.9312000000	   5.7937900000
H	  43.1540000000	  11.6628000000	   8.6702200000
H	  41.7711000000	  10.7777000000	   8.1880500000
H	  42.8487000000	  10.0457000000	   9.2311500000
N	  43.2307000000	  15.6326000000	   7.1845700000
S	  43.7469000000	  14.7476000000	   5.9998100000
O	  44.9175000000	  15.2460000000	   5.3623000000
O	  43.8014000000	  13.3294000000	   6.2545000000
C	  42.4253000000	  14.8667000000	   4.7211700000
F	  41.2189000000	  14.5979000000	   5.2734400000
F	  42.5325000000	  14.0047000000	   3.6679800000
F	  42.3518000000	  16.0487000000	   4.2529400000
S	  42.7292000000	  15.2886000000	   8.5823400000
O	  43.5688000000	  15.7933000000	   9.5957700000
O	  42.0435000000	  14.0271000000	   8.6620300000
C	  41.3113000000	  16.4202000000	   8.7644000000
F	  41.5629000000	  17.7104000000	   8.5622200000
F	  40.2589000000	  16.2361000000	   7.9839000000
F	  40.8008000000	  16.3481000000	   9.9811100000
S	  44.7202000000	  11.6701000000	   3.9759700000
S	  46.6779000000	  12.1496000000	   4.1218400000
S	  48.0074000000	  10.5184000000	   4.1006500000
S	  47.7274000000	  11.7312000000	  -0.5859688588
S	  45.7541000000	  12.2145000000	  -0.5979688588
S	  45.1102000000	  13.7053000000	   0.7849311412
S	  48.3799000000	  10.0837000000	   0.5533311412
S	  49.2642000000	  10.5431000000	   2.3785700000
