68

Li	  47.8962000000	  42.1237000000	  27.1955000000
O	  48.4848000000	  40.6397000000	  28.3432000000
O	  49.2024000000	  39.6684000000	  30.3677000000
C	  48.1091000000	  39.2483000000	  28.2654000000
C	  48.3426000000	  38.6849000000	  29.7286000000
C	  49.4983000000	  40.5825000000	  29.3631000000
H	  47.0596000000	  39.1689000000	  27.9646000000
H	  48.7106000000	  38.6946000000	  27.6054000000
H	  47.3641000000	  38.5525000000	  30.2001000000
H	  48.9268000000	  37.7406000000	  29.5884000000
H	  50.4105000000	  40.3846000000	  28.8588000000
H	  49.6003000000	  41.5463000000	  29.7864000000
O	  44.1608000000	  42.4455000000	  29.3236000000
O	  46.1806000000	  42.2287000000	  28.4473000000
C	  45.0688000000	  42.5132000000	  30.3859000000
C	  46.3459000000	  42.0973000000	  29.8144000000
C	  44.9310000000	  42.7407000000	  28.2735000000
H	  45.1044000000	  43.5341000000	  30.8171000000
H	  44.8529000000	  41.8378000000	  31.0949000000
H	  47.1944000000	  42.5790000000	  30.2523000000
H	  46.4800000000	  41.0923000000	  30.0890000000
H	  44.3781000000	  42.2894000000	  27.4051000000
H	  44.9497000000	  43.8313000000	  28.0866000000
N	  51.0532000000	  42.2411000000	  23.8044000000
S	  50.9018000000	  41.6404000000	  25.2955000000
O	  52.0933000000	  41.7452000000	  26.0826000000
O	  49.6080000000	  41.9345000000	  25.9270000000
C	  50.7664000000	  39.8586000000	  24.9210000000
F	  51.6436000000	  39.5593000000	  24.0170000000
F	  49.6328000000	  39.4017000000	  24.3580000000
F	  51.0965000000	  39.0694000000	  25.9701000000
S	  49.9870000000	  42.8363000000	  22.8821000000
O	  49.4831000000	  44.1495000000	  23.2238000000
O	  48.9610000000	  41.9126000000	  22.4196000000
C	  50.9955000000	  43.1517000000	  21.3534000000
F	  50.2114000000	  43.6108000000	  20.3679000000
F	  51.9377000000	  44.0729000000	  21.4902000000
F	  51.6192000000	  42.0782000000	  20.8778000000
N	  46.9970000000	  45.5444000000	  28.9654000000
S	  48.4083000000	  45.1833000000	  28.4020000000
O	  48.5523000000	  43.8218000000	  27.9627000000
O	  48.9470000000	  46.2333000000	  27.5629000000
C	  49.5160000000	  45.2749000000	  29.8594000000
F	  50.8186000000	  45.2709000000	  29.5944000000
F	  49.3350000000	  44.2533000000	  30.7113000000
F	  49.1999000000	  46.3085000000	  30.5763000000
S	  46.3905000000	  46.9822000000	  28.9748000000
O	  45.3313000000	  47.1873000000	  27.9998000000
O	  47.3594000000	  48.0268000000	  29.1057000000
C	  45.7111000000	  47.1490000000	  30.6485000000
F	  44.5654000000	  46.4973000000	  30.7616000000
F	  46.4973000000	  46.6477000000	  31.5219000000
F	  45.4898000000	  48.4111000000	  31.0003000000
N	  45.7443000000	  41.8574000000	  23.8416000000
S	  46.2753000000	  40.5404000000	  24.4501000000
O	  46.8561000000	  39.6736000000	  23.4553000000
O	  46.9664000000	  40.7452000000	  25.7179000000
C	  44.7561000000	  39.6699000000	  24.9498000000
F	  43.9983000000	  40.3892000000	  25.6926000000
F	  45.1707000000	  38.6832000000	  25.6765000000
F	  44.0601000000	  39.1142000000	  23.9583000000
S	  45.9735000000	  43.3085000000	  24.4203000000
O	  46.4007000000	  44.1739000000	  23.4036000000
O	  46.4640000000	  43.4512000000	  25.7608000000
C	  44.2823000000	  43.9020000000	  24.5150000000
F	  43.7039000000	  44.0503000000	  23.3366000000
F	  43.4593000000	  43.0027000000	  25.1036000000
F	  44.1641000000	  45.0469000000	  25.1580000000
