35

Li	  22.3624000000	   8.5291400000	  58.7792000000
O	  23.9383000000	   8.4201600000	  59.9185388588
C	  24.1270000000	   9.5701600000	  60.7567588588
C	  23.6422000000	  10.7678000000	  59.9821188588
C	  23.1672000000	   9.5596700000	  61.9674988588
C	  25.5877000000	   9.7743200000	  61.0820088588
C	  23.9716000000	   7.1206600000	  60.5834888588
H	  23.6965000000	  11.7632000000	  60.4735588588
H	  24.0525000000	  10.9109000000	  58.9498000000
H	  22.6382000000	  10.5210000000	  59.9139588588
H	  23.1164000000	  10.4608000000	  62.5703388588
H	  22.1911000000	   9.1894500000	  61.7751088588
H	  23.4802000000	   8.7264100000	  62.5233988588
H	  26.2896000000	   9.7626600000	  60.1778888588
H	  25.7788000000	  10.7117000000	  61.6111088588
H	  25.8790000000	   9.1006300000	  61.8129188588
H	  24.9415000000	   7.1307200000	  61.0373488588
H	  23.1455000000	   6.9447800000	  61.3555188588
H	  23.9566000000	   6.3054700000	  59.8293888588
S	  28.3731000000	  -1.4955387583	  60.4634288588
S	  28.3957000000	   0.6280612417	  60.4635088588
S	  26.5621000000	   1.5235500000	  60.8827588588
S	  25.6470000000	   5.2480300000	  57.1783000000
S	  24.0865000000	   6.1673400000	  56.1805000000
S	  23.5142000000	   8.0551200000	  57.0209000000
S	  24.8970000000	   3.8802900000	  58.6859000000
S	  26.3500000000	   3.5439300000	  60.2004288588
S	  17.5711000000	   9.6281300000	  49.3447000000
S	  19.0527000000	  10.3113000000	  50.7316000000
S	  18.3680000000	  11.8771000000	  51.9828000000
S	  19.2959000000	   9.1074800000	  56.3890000000
S	  19.6877000000	   9.4490700000	  58.4355000000
S	  20.5003000000	   7.8648900000	  59.4372188588
S	  19.1941000000	  10.9587000000	  55.1851000000
S	  17.6343000000	  11.0828000000	  53.7553000000
