45

Li	  13.4278000000	  14.6438000000	  39.6904000000
O	  11.6755000000	  14.5358000000	  40.1567000000
C	  11.1935000000	  13.4853000000	  41.0162000000
C	  10.3409000000	  13.9150000000	  42.1981000000
C	  10.2834000000	  12.5766000000	  40.2128000000
C	  12.3578000000	  12.6674000000	  41.5819000000
C	  10.7584000000	  15.6508000000	  39.9161000000
H	  10.7571000000	  14.8204000000	  42.6643000000
H	   9.3213200000	  14.0503000000	  41.7776000000
H	  10.2170000000	  13.0943000000	  42.9268000000
H	  10.3442000000	  11.6426000000	  40.7126000000
H	   9.2495600000	  12.9514000000	  40.2098000000
H	  10.6672000000	  12.5145000000	  39.2004000000
H	  12.7007000000	  11.8761000000	  40.9793000000
H	  13.2330000000	  13.3464000000	  41.6912000000
H	  12.1094000000	  12.2297000000	  42.5397000000
H	  11.2389000000	  16.2584000000	  39.1388000000
H	   9.8063300000	  15.3158000000	  39.4822000000
H	  10.5890000000	  16.3032000000	  40.7673000000
O	  14.4122000000	  13.5023000000	  38.5739000000
C	  14.0612000000	  13.0768000000	  37.2386000000
C	  15.2435000000	  13.2315000000	  36.3278000000
C	  13.6370000000	  11.6008000000	  37.2756000000
C	  12.9500000000	  13.9805000000	  36.7038000000
C	  15.5893000000	  12.9305000000	  39.1602000000
H	  15.9245000000	  12.4374000000	  36.4134000000
H	  14.8220000000	  13.1990000000	  35.3399000000
H	  15.7564000000	  14.2193000000	  36.4983000000
H	  14.5140000000	  10.9714000000	  37.4465000000
H	  13.0058000000	  11.4819000000	  38.1707000000
H	  13.0420000000	  11.2901000000	  36.4247000000
H	  12.5333000000	  13.6849000000	  35.7208000000
H	  12.1253000000	  14.2696000000	  37.4114000000
H	  13.3180000000	  14.9941000000	  36.3277000000
H	  15.7233000000	  13.2515000000	  40.2667000000
H	  15.7281000000	  11.8439000000	  39.2579000000
H	  16.4654000000	  13.3657000000	  38.6507000000
S	   8.6261100000	  21.3820000000	  42.5757000000
S	   9.8342900000	  19.8520000000	  41.6913000000
S	   9.8186400000	  19.9921000000	  39.5574000000
S	  14.2599000000	  18.4815000000	  38.0910000000
S	  14.3281000000	  16.5519000000	  38.6494000000
S	  14.1908000000	  16.2785000000	  40.7170000000
S	  12.4569000000	  19.2085000000	  37.2757000000
S	  11.6875000000	  20.5860000000	  38.5824000000
