50

Li	  46.2554000000	  55.4044000000	  53.9330000000
O	  48.3140000000	  52.6678000000	  51.9184000000
O	  47.3390000000	  53.8117000000	  53.6106000000
C	  47.0759000000	  52.1256000000	  52.2006000000
C	  46.6652000000	  52.6338000000	  53.6283000000
C	  48.5395000000	  53.5348000000	  52.9566000000
H	  46.5192000000	  52.5213000000	  51.3612000000
H	  46.8818000000	  51.0722000000	  52.1216000000
H	  45.6093000000	  52.7601000000	  53.8936000000
H	  47.1922000000	  51.9760000000	  54.3151000000
H	  49.1985000000	  53.0484000000	  53.7104000000
H	  49.0260000000	  54.4316000000	  52.5076000000
N	  45.9850000000	  55.4577000000	  58.2751000000
S	  45.9785000000	  56.5089000000	  57.1202000000
O	  46.6975000000	  57.7369000000	  57.3487000000
O	  46.0561000000	  55.9272000000	  55.7796000000
C	  44.1964000000	  57.1828000000	  57.0956000000
F	  43.9004000000	  57.8904000000	  56.0429000000
F	  43.8945000000	  57.8324000000	  58.2071000000
F	  43.4222000000	  56.1518000000	  57.0008000000
S	  47.1452000000	  54.5953000000	  58.8527000000
O	  46.9609000000	  53.9935000000	  60.1673188588
O	  48.3604000000	  55.3123000000	  58.6205000000
C	  47.2474000000	  53.1598000000	  57.6972000000
F	  48.2338000000	  52.3262000000	  58.1055000000
F	  46.1685000000	  52.4076000000	  57.6909000000
F	  47.5448000000	  53.5249000000	  56.5188000000
N	  48.6605000000	  59.0189287583	  54.8322000000
S	  47.9718000000	  58.0090000000	  53.9090000000
O	  48.0521000000	  56.6521000000	  54.2721000000
O	  46.6871000000	  58.4137000000	  53.4228000000
C	  48.9977000000	  58.1679000000	  52.4675000000
F	  50.1759000000	  57.5464000000	  52.5951000000
F	  49.3377000000	  59.4371587583	  52.2755000000
F	  48.4173000000	  57.7579000000	  51.3894000000
S	  48.1049000000	  60.3886287583	  55.1961000000
O	  47.6059000000	  60.4631687583	  56.5763000000
O	  47.2551000000	  60.9774087583	  54.1792000000
C	  49.6127000000	  61.4526987583	  55.1941000000
F	  50.1007000000	  61.7092187583	  53.9798000000
F	  49.2951000000	  62.6577287583	  55.7539000000
F	  50.6368000000	  60.8452987583	  55.8646000000
S	  44.5263000000	  56.4456000000	  53.0862000000
S	  45.1973000000	  55.2495000000	  51.4838000000
S	  43.5892000000	  54.7251000000	  50.1713000000
S	  45.0966000000	  49.6572000000	  50.9019000000
S	  45.3303000000	  47.7482000000	  50.0634000000
S	  47.0055000000	  46.8350000000	  50.9650000000
S	  44.4214000000	  51.2535000000	  49.5890000000
S	  43.2309000000	  52.5897000000	  50.6033000000
