64

Li	  37.7754000000	  49.0447000000	  46.2254000000
O	  34.7089000000	  52.3166000000	  45.0565000000
O	  35.8440000000	  50.3717000000	  45.3821000000
C	  34.5781000000	  51.6477000000	  43.8515000000
C	  35.0781000000	  50.2543000000	  44.2406000000
C	  35.8059000000	  51.7117000000	  45.6403000000
H	  33.5225000000	  51.7954000000	  43.4154000000
H	  35.2446000000	  52.0786000000	  43.1863000000
H	  34.2389000000	  49.6343000000	  44.5787000000
H	  35.6532000000	  49.7646000000	  43.5438000000
H	  36.6616000000	  52.1745000000	  45.1627000000
H	  35.7235000000	  51.8057000000	  46.7502000000
O	  36.3087000000	  48.1715000000	  47.6155000000
O	  35.5180000000	  46.6382000000	  49.1263000000
C	  34.9453000000	  47.8558000000	  47.3213000000
C	  34.4466000000	  46.7714000000	  48.2404000000
C	  36.4407000000	  47.6489000000	  48.8465000000
H	  34.3959000000	  48.7599000000	  47.3310000000
H	  34.7963000000	  47.6984000000	  46.2737000000
H	  33.4932000000	  47.0746000000	  48.7049000000
H	  34.2187000000	  45.9546000000	  47.6372000000
H	  37.4471000000	  47.3804000000	  48.9722000000
H	  36.3498000000	  48.4217000000	  49.6023000000
O	  38.3409000000	  45.9586000000	  43.5320000000
O	  37.4093000000	  47.5463000000	  44.9453000000
C	  38.3845000000	  45.5003000000	  44.8331000000
C	  37.3413000000	  46.2882000000	  45.5913000000
C	  37.9184000000	  47.2869000000	  43.6469000000
H	  38.1454000000	  44.4901000000	  44.8754000000
H	  39.3779000000	  45.6691000000	  45.2973000000
H	  36.3211000000	  45.8332000000	  45.4381000000
H	  37.5299000000	  46.3530000000	  46.6698000000
H	  38.8319000000	  47.8584000000	  43.5998000000
H	  37.1784000000	  47.5850000000	  42.8693000000
N	  40.4306000000	  50.4670000000	  48.2078000000
S	  38.9610000000	  50.4905000000	  48.7170000000
O	  37.9135000000	  50.1880000000	  47.7625000000
O	  38.8458000000	  49.8776000000	  50.0442000000
C	  38.6548000000	  52.2351000000	  49.1519000000
F	  38.4593000000	  52.9138000000	  48.0321000000
F	  39.6291000000	  52.7899000000	  49.7491000000
F	  37.5856000000	  52.4383000000	  49.8669000000
S	  40.9591000000	  49.3423000000	  47.2217000000
O	  41.8195000000	  49.8926000000	  46.2219000000
O	  39.9111000000	  48.3864000000	  46.9138000000
C	  42.1682000000	  48.4738000000	  48.2363000000
F	  42.9133000000	  49.2342000000	  48.9867000000
F	  41.5621000000	  47.6561000000	  49.0659000000
F	  42.9959000000	  47.7439000000	  47.5141000000
N	  38.4959000000	  51.3213000000	  42.6236000000
S	  39.4011000000	  51.1409000000	  43.8495000000
O	  38.7517000000	  50.4934000000	  44.9767000000
O	  40.7862000000	  50.7432000000	  43.6774000000
C	  39.6180000000	  52.8549000000	  44.3731000000
F	  40.1827000000	  52.9738000000	  45.5251000000
F	  38.4950000000	  53.6019000000	  44.3712000000
F	  40.4096000000	  53.4953000000	  43.5678000000
S	  38.7082000000	  50.9474000000	  41.1375000000
O	  38.3905000000	  49.5866000000	  40.9285000000
O	  39.9279000000	  51.5014000000	  40.6123000000
C	  37.2892000000	  51.8209000000	  40.2748000000
F	  36.0822000000	  51.6724000000	  40.8783000000
F	  37.5143000000	  53.1089000000	  40.2014000000
F	  37.1814000000	  51.3701000000	  39.0980000000
