64

Li	  34.3590000000	  43.6473000000	  25.6562000000
O	  33.6960000000	  44.2658000000	  24.1004000000
C	  33.2314000000	  45.6352000000	  24.0128000000
C	  33.9866000000	  46.3424000000	  22.8726000000
C	  31.6939000000	  45.6363000000	  23.6892000000
C	  33.3425000000	  46.2734000000	  25.3525000000
C	  33.2664000000	  43.3346000000	  23.0789000000
H	  33.7960000000	  45.8389000000	  21.9653000000
H	  33.5383000000	  47.3514000000	  22.8480000000
H	  35.0516000000	  46.3140000000	  23.0006000000
H	  31.4463000000	  45.4345000000	  22.6214000000
H	  31.1178000000	  44.8208000000	  24.2434000000
H	  31.3742000000	  46.6562000000	  23.9528000000
H	  34.3645000000	  46.1783000000	  25.8628000000
H	  33.1442000000	  47.3244000000	  25.3631000000
H	  32.7571000000	  45.7348000000	  26.0344000000
H	  32.2400000000	  43.0500000000	  23.1029000000
H	  33.6493000000	  43.5982000000	  22.1232000000
H	  33.7987000000	  42.3663000000	  23.1673000000
N	  38.4071000000	  43.0278000000	  25.6741000000
S	  38.5051000000	  41.6948000000	  26.4882000000
O	  39.8415000000	  41.5520000000	  27.0245000000
O	  37.4161000000	  41.3093000000	  27.3635000000
C	  38.4573000000	  40.4402000000	  25.1129000000
F	  38.3544000000	  39.1583000000	  25.5766000000
F	  39.5152000000	  40.4901000000	  24.3070000000
F	  37.3956000000	  40.6269000000	  24.3094000000
S	  37.5206000000	  44.3005000000	  25.9582000000
O	  37.7815000000	  44.9945000000	  27.2325000000
O	  36.1507000000	  44.1574000000	  25.4730000000
C	  38.1524000000	  45.4334000000	  24.6401000000
F	  39.4775000000	  45.6860000000	  24.6811000000
F	  37.8926000000	  45.0658000000	  23.3806000000
F	  37.5727000000	  46.6066000000	  24.8032000000
N	  32.5048000000	  40.8782000000	  26.9503000000
S	  31.4536000000	  41.8181000000	  26.2202000000
O	  31.8578000000	  43.2274000000	  26.1699000000
O	  30.7650000000	  41.2565000000	  25.0487000000
C	  30.1375000000	  41.9188000000	  27.5500000000
F	  29.7376000000	  40.6938000000	  27.8693000000
F	  29.0471000000	  42.4252000000	  27.0076000000
F	  30.4468000000	  42.6147000000	  28.6315000000
S	  34.0270000000	  40.7272000000	  26.4185000000
O	  34.9118000000	  40.1297000000	  27.3800000000
O	  34.5018000000	  41.8245000000	  25.6251000000
C	  33.8406000000	  39.5048000000	  25.0718000000
F	  34.9949000000	  39.2314000000	  24.5159000000
F	  33.3849000000	  38.3164000000	  25.4846000000
F	  33.0394000000	  39.9353000000	  24.0914000000
N	  35.4960000000	  44.2538000000	  29.6120000000
S	  34.1588000000	  43.6885000000	  29.0318000000
O	  34.0538000000	  44.0131000000	  27.6315000000
O	  33.7232000000	  42.4033000000	  29.5237000000
C	  32.9531000000	  44.8375000000	  29.7422000000
F	  33.2871000000	  46.1081000000	  29.5397000000
F	  32.7912000000	  44.7165000000	  31.0515000000
F	  31.7279000000	  44.7109000000	  29.2162000000
S	  36.6344000000	  43.5369000000	  30.2893000000
O	  37.8999000000	  44.2524000000	  30.1878000000
O	  36.6860000000	  42.1023000000	  30.1036000000
C	  36.0590000000	  43.7305000000	  32.0033000000
F	  37.0559000000	  43.5190000000	  32.9267000000
F	  35.6177000000	  45.0014000000	  32.1352000000
F	  35.1296000000	  42.8629000000	  32.3960000000
