46

Li	   3.3326700000	  46.1788000000	  22.7738000000
N	   0.0037467493	  45.0973000000	  20.6608000000
S	  -0.0370532507	  46.6496000000	  21.0153000000
O	  -1.3531532507	  46.9709000000	  21.5506000000
O	   1.1432500000	  47.2050000000	  21.5767000000
C	   0.0661467493	  47.4183000000	  19.3460000000
F	   1.1836800000	  47.0200000000	  18.7335000000
F	   0.2273467493	  48.7323000000	  19.3869000000
F	  -0.9855532507	  47.1726000000	  18.5138000000
S	   1.0686600000	  43.9998000000	  21.0586000000
O	   0.4900467493	  42.7470000000	  21.5111000000
O	   2.2715100000	  44.4752000000	  21.7559000000
C	   1.7610900000	  43.5603000000	  19.4447000000
F	   0.7698467493	  43.2647000000	  18.6037000000
F	   2.4996300000	  44.4592000000	  18.8190000000
F	   2.4547000000	  42.4282000000	  19.5708000000
N	   6.0538800000	  48.2283000000	  21.3634000000
S	   5.3168700000	  48.8638000000	  22.6152000000
O	   4.9486400000	  50.2652000000	  22.5173000000
O	   4.3885200000	  47.9930000000	  23.2259000000
C	   6.7241700000	  48.6889000000	  23.8924000000
F	   6.5177600000	  49.1218000000	  25.1068000000
F	   7.8357400000	  49.2505000000	  23.4170000000
F	   7.0710700000	  47.4307000000	  24.1662000000
S	   5.6094200000	  46.9122000000	  20.6046000000
O	   4.4511800000	  46.3037000000	  21.1939000000
O	   6.7030600000	  46.0726000000	  20.1799000000
C	   4.9941300000	  47.6674000000	  19.0059000000
F	   4.0213600000	  48.5609000000	  19.1355000000
F	   6.0770400000	  48.1819000000	  18.5021000000
F	   4.5857200000	  46.7620000000	  18.1071000000
N	   3.5362100000	  44.6407000000	  25.9610000000
S	   2.0926900000	  45.0667000000	  25.4664000000
O	   1.2502500000	  45.4692000000	  26.5488000000
O	   2.0556000000	  45.7923000000	  24.2172000000
C	   1.4071000000	  43.4472000000	  25.1113000000
F	   1.2083900000	  42.6532000000	  26.1345000000
F	   2.2070900000	  42.8319000000	  24.2163000000
F	   0.1746467493	  43.6336000000	  24.6317000000
S	   4.8605600000	  45.0316000000	  25.3186000000
O	   5.5207300000	  46.1309000000	  25.8828000000
O	   4.8201300000	  44.9292000000	  23.8489000000
C	   5.8979600000	  43.6545000000	  25.7982000000
F	   5.6190100000	  43.1667000000	  26.9876000000
F	   5.9100000000	  42.6171000000	  24.9581000000
F	   7.1328200000	  43.9774000000	  25.8215000000
