42

Li	  47.3529000000	   9.6890500000	  32.3172000000
O	  46.0572000000	  10.3511000000	  31.1046000000
C	  45.8534000000	   9.7228300000	  29.7697000000
C	  47.2300000000	   9.2731800000	  29.2836000000
C	  44.8352000000	   8.5347600000	  29.8204000000
C	  45.3779000000	  10.8303000000	  28.8874000000
C	  44.9310000000	  11.0342000000	  31.7642000000
H	  47.7579000000	   8.6302800000	  30.0229000000
H	  47.1056000000	   8.6447100000	  28.3633000000
H	  47.9329000000	   9.9929800000	  28.8442000000
H	  44.5954000000	   7.9973200000	  28.8334000000
H	  45.3145000000	   7.7726100000	  30.4413000000
H	  44.0089000000	   8.9066600000	  30.3670000000
H	  44.2737000000	  10.9192000000	  28.9567000000
H	  45.7833000000	  11.7406000000	  29.2816000000
H	  45.5212000000	  10.6853000000	  27.8397000000
H	  44.7263000000	  11.9476000000	  31.1841000000
H	  43.9898000000	  10.4966000000	  31.7922000000
H	  45.2298000000	  11.4139000000	  32.7622000000
N	  46.3565000000	   6.6917500000	  34.1264000000
S	  45.7947000000	   7.9623400000	  34.7395000000
O	  45.6885000000	   8.0147500000	  36.1917000000
O	  46.1166000000	   9.1814000000	  34.0301000000
C	  44.0587000000	   7.6452400000	  34.2758000000
F	  43.6546000000	   6.4752000000	  34.7565000000
F	  43.8940000000	   7.6247500000	  32.9494000000
F	  43.1898000000	   8.5599400000	  34.6346000000
S	  47.3121000000	   6.5397100000	  32.8955000000
O	  48.1526000000	   7.6396400000	  32.5795000000
O	  46.6940000000	   5.9064000000	  31.7766000000
C	  48.5665000000	   5.3440700000	  33.6207000000
F	  49.0783000000	   5.9061800000	  34.7106000000
F	  48.0646000000	   4.2059700000	  33.8886000000
F	  49.5808000000	   5.1270200000	  32.7722000000
S	  52.5236000000	  19.5445000000	  31.2188000000
S	  51.6504000000	  17.9085000000	  32.1781000000
S	  51.3771000000	  16.2804000000	  30.8363000000
S	  51.6617000000	  11.4188000000	  31.3972000000
S	  49.6447000000	  10.9190000000	  31.3293000000
S	  48.4487000000	  11.1625000000	  33.1127000000
S	  52.1526000000	  12.9107000000	  30.0437000000
S	  52.6469000000	  14.6190000000	  31.2515000000
