43

Li	   7.1973600000	   4.0742500000	  37.9653000000
O	   5.7987100000	   4.3654300000	  39.1312000000
O	   5.3707800000	   5.7512600000	  40.8431000000
C	   5.1081200000	   3.5462600000	  39.9810000000
C	   4.9049900000	   4.3989300000	  41.1872000000
C	   5.4651900000	   5.6922700000	  39.4609000000
H	   4.1559600000	   3.2021100000	  39.5720000000
H	   5.5570600000	   2.6151900000	  40.3469000000
H	   3.8870800000	   4.5066500000	  41.3300000000
H	   5.4288500000	   4.1277600000	  42.1304000000
H	   6.1726600000	   6.4309300000	  38.9878000000
H	   4.4519500000	   5.9357400000	  39.2426000000
N	  10.0215000000	   7.4099800000	  36.2748000000
S	   8.5842000000	   6.9440100000	  36.4398000000
O	   7.9562300000	   6.7698000000	  35.1533000000
O	   8.3488900000	   5.8953400000	  37.4082000000
C	   7.7600400000	   8.4612600000	  37.0279000000
F	   8.1403400000	   8.7121700000	  38.1860000000
F	   6.4393000000	   8.3767900000	  37.2469000000
F	   8.0181800000	   9.5090200000	  36.3081000000
S	  11.2534000000	   6.4230700000	  36.1496000000
O	  12.0560000000	   6.6435700000	  34.9800000000
O	  10.8892000000	   5.0897000000	  36.5670000000
C	  12.3903000000	   7.0485900000	  37.5217000000
F	  13.4519000000	   6.2951400000	  37.5828000000
F	  12.7811000000	   8.3454600000	  37.3658000000
F	  11.8096000000	   6.9700300000	  38.6960000000
S	   5.6561300000	   3.8437700000	  36.1420000000
S	   3.5749100000	   4.0726600000	  36.4732000000
S	   2.7887400000	   6.0350500000	  36.6033000000
S	   1.2762500000	   9.8147700000	  34.6443000000
S	   3.2648500000	  10.6013000000	  34.7467000000
S	   3.4435700000	  12.1028000000	  33.2846000000
S	   1.3097900000	   7.8503500000	  34.0229000000
S	   0.9598467493	   6.5248500000	  35.6014000000
S	  15.8809000000	   1.2337400000	  45.7686000000
S	  14.2979000000	   2.6059300000	  45.3502000000
S	  13.1298000000	   2.0097400000	  43.7161000000
S	  10.4848000000	   4.6253800000	  40.2246000000
S	   8.7141200000	   3.7467500000	  39.6667000000
S	   8.7937000000	   2.7326000000	  37.8614000000
S	  10.9671000000	   4.4995600000	  42.2128000000
S	  12.9270000000	   3.7230000000	  42.4196000000
