54

Li	  25.3786000000	  52.5314000000	  52.4293000000
N	  23.7909000000	  48.8344000000	  52.9478000000
S	  23.9992000000	  47.4707000000	  52.1861000000
O	  23.1084000000	  46.4094000000	  52.5018000000
O	  24.3964000000	  47.6104000000	  50.7885000000
C	  25.5158000000	  46.8635000000	  52.8942000000
F	  26.5130000000	  47.7979000000	  52.6654000000
F	  25.9640000000	  45.7656000000	  52.2698000000
F	  25.3005000000	  46.6340000000	  54.1640000000
S	  23.3028000000	  50.1190000000	  52.2291000000
O	  22.9939000000	  50.0154000000	  50.8055000000
O	  23.9977000000	  51.2915000000	  52.6547000000
C	  21.7325000000	  50.3604000000	  53.0151000000
F	  20.9094000000	  49.3822000000	  52.7283000000
F	  21.8156000000	  50.4360000000	  54.3213000000
F	  21.1482000000	  51.4535000000	  52.6082000000
N	  23.3768000000	  53.4156000000	  55.8958000000
S	  23.8725000000	  53.4419000000	  57.3735000000
O	  25.0933000000	  52.7404000000	  57.5270000000
O	  23.7156000000	  54.7366000000	  57.9777000000
C	  22.6082000000	  52.3462000000	  58.2205000000
F	  23.0194000000	  52.0380000000	  59.4858688588
F	  22.4881000000	  51.1867000000	  57.6157000000
F	  21.4369000000	  52.8423000000	  58.3596000000
S	  23.5666000000	  54.6128000000	  54.8555000000
O	  24.3773000000	  54.2334000000	  53.7474000000
O	  23.8828000000	  55.8976000000	  55.4122000000
C	  21.8464000000	  54.9345000000	  54.1385000000
F	  21.0609000000	  55.4248000000	  55.1844000000
F	  21.9201000000	  55.8920000000	  53.2765000000
F	  21.2866000000	  53.8579000000	  53.6048000000
N	  27.2212000000	  55.4112000000	  50.1539000000
S	  28.3069000000	  56.4471000000	  50.4049000000
O	  28.0746000000	  57.4466000000	  51.4341000000
O	  29.6271000000	  55.8972000000	  50.3520000000
C	  28.2077000000	  57.5218000000	  48.8694000000
F	  29.2970000000	  58.2111000000	  48.6973000000
F	  27.2494000000	  58.4577000000	  48.9010000000
F	  27.9435000000	  56.8035000000	  47.8045000000
S	  25.7615000000	  55.2641000000	  50.8517000000
O	  25.4071000000	  56.1861000000	  51.9005000000
O	  25.5162000000	  53.8597000000	  51.0436000000
C	  24.7139000000	  55.7466000000	  49.3268000000
F	  24.8071000000	  57.0033000000	  48.9809000000
F	  25.0892000000	  55.0769000000	  48.2466000000
F	  23.4703000000	  55.4875000000	  49.5283000000
S	  35.9077000000	  50.3438000000	  54.2381000000
S	  34.6654000000	  49.4827000000	  52.7772000000
S	  32.5875000000	  49.5994000000	  53.1916000000
S	  28.6535000000	  52.2624000000	  51.2382000000
S	  27.1673000000	  51.1888000000	  52.3191000000
S	  26.6336000000	  52.1004000000	  54.1826000000
S	  30.5210000000	  52.1605000000	  52.1057000000
S	  31.3492000000	  50.2498000000	  51.6037000000
