48

Li	  14.1231000000	  28.5216000000	   5.6931600000
O	  10.4586000000	  27.8812000000	   4.8629200000
O	  12.2851000000	  28.9839000000	   5.5827400000
C	  10.3566000000	  27.9714000000	   6.2439100000
C	  11.3372000000	  29.1294000000	   6.6168000000
C	  11.5113000000	  28.7200000000	   4.4922300000
H	   9.3932800000	  28.2404000000	   6.5972400000
H	  10.6715000000	  26.9443000000	   6.6264200000
H	  10.8877000000	  30.1189000000	   6.5198900000
H	  11.7766000000	  28.9611000000	   7.5936500000
H	  12.0574000000	  28.1731000000	   3.7546700000
H	  11.1632000000	  29.6256000000	   4.1310000000
O	  15.0511000000	  27.5785000000	   3.9524400000
C	  14.7334000000	  26.2199000000	   3.7636100000
C	  16.1527000000	  25.4644000000	   3.8622600000
C	  13.7462000000	  25.7128000000	   4.8307200000
C	  14.1184000000	  26.0201000000	   2.3652500000
C	  15.7882000000	  28.3109000000	   2.9263700000
H	  16.6152000000	  25.6471000000	   4.8122600000
H	  15.8897000000	  24.3552000000	   3.8528500000
H	  16.8981000000	  25.7087000000	   3.0592900000
H	  14.2990000000	  25.7970000000	   5.7348800000
H	  12.8416000000	  26.2748000000	   4.9156500000
H	  13.6511000000	  24.6274000000	   4.7987200000
H	  14.7385000000	  26.0017000000	   1.5056600000
H	  13.5162000000	  25.1388000000	   2.3296200000
H	  13.4302000000	  26.8768000000	   2.2185000000
H	  15.7724000000	  29.3461000000	   3.1426400000
H	  16.8086000000	  28.0340000000	   2.8007300000
H	  15.2309000000	  28.1680000000	   2.0440100000
O	  15.4077000000	  30.0040000000	   5.9092300000
C	  16.7449000000	  30.2380000000	   6.4090500000
C	  16.7873000000	  31.2237000000	   7.6039000000
C	  17.2459000000	  28.8487000000	   6.8774700000
C	  17.6745000000	  30.7380000000	   5.2794000000
C	  14.6287000000	  31.1718000000	   5.7943700000
H	  15.8819000000	  31.1011000000	   8.1876600000
H	  17.7070000000	  31.0479000000	   8.1480400000
H	  16.9093000000	  32.2410000000	   7.3563900000
H	  16.5714000000	  28.2044000000	   7.3903900000
H	  17.5026000000	  28.1713000000	   6.0450900000
H	  18.1428000000	  28.9776000000	   7.4905100000
H	  18.7277000000	  30.6537000000	   5.5800500000
H	  17.4878000000	  30.2797000000	   4.3215100000
H	  17.4869000000	  31.7694000000	   5.0982400000
H	  15.2618000000	  31.9230000000	   5.2503100000
H	  13.6883000000	  30.9952000000	   5.2599300000
H	  14.3604000000	  31.6156000000	   6.7287300000
