46

Li	  27.5240000000	  39.2646000000	  18.8586000000
O	  24.7541000000	  38.1373000000	  21.6864000000
O	  26.0892000000	  39.0497000000	  20.1440000000
C	  23.9938000000	  39.1347000000	  21.0554000000
C	  24.8001000000	  39.5653000000	  19.9037000000
C	  25.7279000000	  37.8762000000	  20.7642000000
H	  23.0472000000	  38.6648000000	  20.7691000000
H	  23.7890000000	  39.7974000000	  21.8615000000
H	  24.4259000000	  39.0655000000	  19.0035000000
H	  24.9202000000	  40.6384000000	  19.7511000000
H	  26.5272000000	  37.2998000000	  21.2031000000
H	  25.3603000000	  37.2688000000	  19.9795000000
O	  27.9179000000	  43.3749000000	  19.6107000000
O	  27.6761000000	  41.1048000000	  19.2555000000
C	  27.3714000000	  42.7781000000	  20.7497000000
C	  27.9211000000	  41.3598000000	  20.6677000000
C	  27.9510000000	  42.3561000000	  18.6997000000
H	  27.7166000000	  43.3521000000	  21.5948000000
H	  26.2789000000	  42.8253000000	  20.7786000000
H	  28.9782000000	  41.3065000000	  20.8899000000
H	  27.5149000000	  40.5682000000	  21.3003000000
H	  27.3070000000	  42.5339000000	  17.7703000000
H	  28.9500000000	  42.2512000000	  18.2507000000
N	  31.2664000000	  37.9307000000	  18.6083000000
S	  30.3078000000	  37.1612000000	  19.5801000000
O	  29.0678000000	  37.8327000000	  19.8047000000
O	  30.3100000000	  35.7005000000	  19.5152000000
C	  31.2364000000	  37.2710000000	  21.1132000000
F	  31.8206000000	  38.4322000000	  21.3613000000
F	  32.2330000000	  36.3988000000	  20.9572000000
F	  30.5731000000	  36.8529000000	  22.2276000000
S	  30.8362000000	  38.9057000000	  17.4023000000
O	  29.4687000000	  39.2606000000	  17.3883000000
O	  31.5170000000	  38.4986000000	  16.1716000000
C	  31.5748000000	  40.5505000000	  17.8398000000
F	  31.3093000000	  41.5780000000	  17.0804000000
F	  31.1975000000	  40.8654000000	  19.0488000000
F	  32.8913000000	  40.4433000000	  17.9352000000
S	  25.3863000000	  36.1105000000	  24.6872000000
S	  23.6077000000	  34.9704000000	  24.3163000000
S	  23.0843000000	  35.2176000000	  22.3259000000
S	  25.8016000000	  34.4868000000	  18.2928000000
S	  27.2113000000	  35.8720000000	  17.4694000000
S	  26.5214000000	  37.8791000000	  17.0804000000
S	  26.0256000000	  34.2543000000	  20.3552000000
S	  24.1600000000	  33.7045000000	  21.2905000000
