47

Li	  21.7111000000	  37.5298000000	   3.0871000000
N	  19.3296000000	  40.8781000000	   4.5503700000
S	  18.0429000000	  41.6771000000	   4.3089900000
O	  17.9949000000	  42.5286000000	   3.1121500000
O	  16.8676000000	  41.0484000000	   4.7556500000
C	  18.1981000000	  42.8963000000	   5.6751300000
F	  19.3729000000	  43.4768000000	   5.5098200000
F	  18.1493000000	  42.3415000000	   6.8379900000
F	  17.2381000000	  43.7978000000	   5.7475400000
S	  20.5845000000	  40.7672000000	   3.5424500000
O	  20.8073000000	  41.9590000000	   2.7506600000
O	  20.8107000000	  39.4557000000	   2.9674000000
C	  21.9904000000	  40.9639000000	   4.7739300000
F	  23.2116000000	  40.9528000000	   4.2280000000
F	  21.8876000000	  42.0812000000	   5.4880200000
F	  22.0295000000	  39.9236000000	   5.6155100000
N	  20.4019000000	  36.2100000000	   7.3316400000
S	  20.0190000000	  36.9614000000	   8.7019000000
O	  20.9844000000	  37.8622000000	   9.2412500000
O	  18.6463000000	  37.4247000000	   8.8630800000
C	  20.0372000000	  35.5557000000	   9.9130300000
F	  19.1904000000	  34.5475000000	   9.6262600000
F	  19.7520000000	  35.9835000000	  11.1590000000
F	  21.2880000000	  35.0400000000	  10.0154000000
S	  21.6476000000	  36.3540000000	   6.3443900000
O	  22.8481000000	  36.8371000000	   6.9293100000
O	  21.3274000000	  36.8028000000	   5.0281200000
C	  22.0871000000	  34.5863000000	   6.1597500000
F	  21.9647000000	  33.8201000000	   7.2660700000
F	  21.3827000000	  33.9506000000	   5.2518700000
F	  23.3648000000	  34.4601000000	   5.8132700000
S	  23.9387000000	  36.9203000000	   2.8987300000
S	  24.8075000000	  37.8996000000	   4.5532400000
S	  26.4690000000	  39.1403000000	   4.0741700000
S	  30.7264000000	  39.9136000000	   5.6987600000
S	  32.5033000000	  39.1007000000	   5.1231100000
S	  34.1273000000	  39.5476000000	   6.3849000000
S	  29.3137000000	  38.4364000000	   6.1331900000
S	  28.2610000000	  37.9267000000	   4.3140100000
S	  21.4505000000	  39.0413000000	  -6.5737688588
S	  22.5624000000	  40.0115000000	  -5.0369688588
S	  21.4166000000	  41.5153000000	  -3.9052688588
S	  22.6252000000	  39.1737000000	   0.3398311412
S	  21.6232000000	  37.3775000000	  -0.1704688588
S	  20.6502000000	  36.3734000000	   1.3963200000
S	  21.5826000000	  40.9489000000	  -0.3709688588
S	  22.4291000000	  41.9069000000	  -2.0957688588
