35

Li	  20.9237000000	   2.8960100000	  48.0904000000
O	  22.0197000000	   1.4181400000	  47.7462000000
C	  22.7745000000	   1.4041200000	  46.4958000000
C	  22.8584000000	  -0.0202387583	  45.8990000000
C	  22.0495000000	   2.3015900000	  45.5328000000
C	  24.2223000000	   1.9798400000	  46.6169000000
C	  22.6281000000	   0.7663612417	  48.8839000000
H	  22.0108000000	  -0.5722387583	  46.1638000000
H	  22.8942000000	  -0.0653387583	  44.8474000000
H	  23.6710000000	  -0.5451387583	  46.4083000000
H	  22.6638000000	   2.3436200000	  44.5961000000
H	  21.0862000000	   1.8591200000	  45.2043000000
H	  21.9232000000	   3.3100200000	  45.9652000000
H	  24.9195000000	   1.5249800000	  47.3246000000
H	  24.8531000000	   2.1287000000	  45.7310000000
H	  24.1214000000	   3.0536600000	  46.9702000000
H	  21.9171000000	   0.7448612417	  49.6556000000
H	  23.0517000000	  -0.1910387583	  48.6574000000
H	  23.4050000000	   1.4724100000	  49.2583000000
S	  22.4392000000	   4.3691700000	  48.4040000000
S	  21.1890000000	   4.3659000000	  50.1011000000
S	  21.9168000000	   3.1197900000	  51.7088000000
S	  19.4929000000	   2.8639200000	  55.4705000000
S	  18.9155000000	   2.1595000000	  57.3431000000
S	  16.9734000000	   1.3732100000	  57.3722000000
S	  20.7497000000	   1.5210100000	  54.5124000000
S	  20.3608000000	   1.8336900000	  52.5118000000
S	  19.1827000000	   3.6469100000	  47.2978000000
S	  19.0474000000	   1.4226400000	  47.1415000000
S	  18.8678000000	   0.5134612417	  49.0462000000
S	  20.1340000000	  -2.3666387583	  52.5910000000
S	  20.6846000000	  -4.3435387583	  53.1693000000
S	  18.9097000000	  -5.3059387583	  53.9863000000
S	  21.0155000000	  -1.8393387583	  50.7665000000
S	  19.4996000000	  -1.5152387583	  49.3097000000
