35

Li	  12.5404000000	  10.4709000000	  34.1192000000
O	  12.2147000000	  11.3411000000	  35.6410000000
O	  10.6632000000	  11.0636000000	  37.2753000000
C	  11.8276000000	  12.6313000000	  35.9225000000
C	  10.5095000000	  12.3977000000	  36.7063000000
C	  11.8499000000	  10.5977000000	  36.7796000000
H	  12.6231000000	  13.1447000000	  36.4846000000
H	  11.6464000000	  13.1310000000	  34.9863000000
H	  10.2777000000	  13.1963000000	  37.4030000000
H	   9.6914800000	  12.3267000000	  35.9554000000
H	  11.7879000000	   9.5317300000	  36.7016000000
H	  12.5950000000	  10.8473000000	  37.4859000000
N	  11.3690000000	   6.4490300000	  35.0787000000
S	  10.9669000000	   7.4883000000	  33.9619000000
O	   9.5587800000	   7.3145500000	  33.6795000000
O	  11.4992000000	   8.8438800000	  34.0396000000
C	  11.7021000000	   6.6456000000	  32.5589000000
F	  13.0416000000	   6.6478900000	  32.5738000000
F	  11.4616000000	   7.3187300000	  31.4728000000
F	  11.3770000000	   5.3629000000	  32.4421000000
S	  11.1033000000	   6.5178200000	  36.6361000000
O	   9.6853000000	   6.7231200000	  36.9732000000
O	  12.0832000000	   7.2057000000	  37.4880000000
C	  11.3527000000	   4.7829700000	  37.0800000000
F	  12.6187000000	   4.3818500000	  37.2497000000
F	  10.8126000000	   4.5026300000	  38.2848000000
F	  10.7763000000	   3.9135400000	  36.2796000000
S	  18.3840000000	   7.0935000000	  41.6537000000
S	  19.4326000000	   7.1009300000	  39.7977000000
S	  18.6070000000	   5.9891000000	  38.1931000000
S	  14.8593000000	   9.2390500000	  36.2856000000
S	  14.7060000000	   9.0989000000	  34.1807000000
S	  14.4382000000	  10.9769000000	  33.2871000000
S	  15.5584000000	   7.4067900000	  36.9697000000
S	  17.6178000000	   7.1200700000	  36.7414000000
