35

Li	   4.6832200000	  32.3237000000	  57.8151000000
O	   5.0803600000	  31.5321000000	  60.8261488588
O	   4.5941000000	  30.7077000000	  58.9037000000
C	   3.7769500000	  30.9400000000	  61.0281788588
C	   3.5543400000	  30.2216000000	  59.6913788588
C	   5.6331300000	  30.8035000000	  59.7654688588
H	   4.0050800000	  30.1643000000	  61.8040488588
H	   3.0094900000	  31.6977000000	  61.4551188588
H	   3.5973000000	  29.1628000000	  59.9040388588
H	   2.6516500000	  30.3840000000	  59.2373888588
H	   6.4705700000	  31.3030000000	  59.2436888588
H	   6.0434400000	  29.8786000000	  60.1831888588
N	   0.2757467493	  32.8512000000	  56.9200000000
S	   0.3904467493	  32.3080000000	  55.4699000000
O	  -0.7548532507	  32.6583000000	  54.7220000000
O	   1.7115400000	  32.3155000000	  54.8854000000
C	   0.2018467493	  30.5155000000	  55.7083000000
F	  -1.0048532507	  30.1847000000	  56.2003000000
F	   1.0539300000	  29.9368000000	  56.6048000000
F	   0.2921467493	  29.8912000000	  54.5597000000
S	   1.3787000000	  33.7151000000	  57.6748000000
O	   1.2116800000	  35.1208000000	  57.5030000000
O	   2.7355500000	  33.1783000000	  57.5788000000
C	   0.9939467493	  33.4091000000	  59.4597588588
F	   1.1331700000	  32.0871000000	  59.8236288588
F	   1.7414500000	  34.0750000000	  60.3513888588
F	  -0.2549532507	  33.6489000000	  59.7784888588
S	   4.9054700000	  31.7670000000	  55.8161000000
S	   6.9855700000	  31.9144000000	  55.6934000000
S	   7.6358300000	  33.3175000000	  54.2726000000
S	   6.6257800000	  37.0322000000	  57.4450000000
S	   5.0170900000	  35.8224000000	  57.9960000000
S	   5.4060300000	  34.0552000000	  59.0477188588
S	   7.1783700000	  36.5328000000	  55.3964000000
S	   8.4859300000	  34.9383000000	  55.1667000000
