72

Li	  48.8424000000	  37.8038000000	  43.8480000000
O	  50.5265000000	  39.9274000000	  46.1538000000
O	  50.6609000000	  38.5233000000	  44.4538000000
C	  51.1424000000	  40.6874000000	  45.1233000000
C	  51.3156000000	  39.6577000000	  43.9515000000
C	  50.7310000000	  38.6054000000	  45.8251000000
H	  50.5856000000	  41.5665000000	  44.7970000000
H	  52.0366000000	  40.9917000000	  45.6153000000
H	  50.8759000000	  39.9023000000	  42.9739000000
H	  52.3691000000	  39.3974000000	  43.7833000000
H	  51.7597000000	  38.3862000000	  46.1301000000
H	  50.0803000000	  37.8491000000	  46.3324000000
N	  52.0371000000	  36.2225000000	  42.5601000000
S	  52.5447000000	  35.1088000000	  43.5410000000
O	  52.5562000000	  35.5800000000	  44.8913000000
O	  52.0856000000	  33.7915000000	  43.1878000000
C	  54.2877000000	  34.9734000000	  43.0414000000
F	  54.9034000000	  36.0861000000	  43.1690000000
F	  54.5033000000	  34.4458000000	  41.8427000000
F	  54.9655000000	  34.1633000000	  43.8349000000
S	  50.7039000000	  36.3241000000	  41.7293000000
O	  49.7621000000	  37.4077000000	  42.0709000000
O	  50.2032000000	  35.0194000000	  41.3506000000
C	  51.4827000000	  36.9626000000	  40.2438000000
F	  51.8704000000	  38.2762000000	  40.3377000000
F	  52.5845000000	  36.3547000000	  39.8402000000
F	  50.6020000000	  36.8332000000	  39.2263000000
N	  46.9776000000	  35.5555000000	  40.8585000000
S	  46.2919000000	  35.8852000000	  42.2903000000
O	  45.7060000000	  34.7657000000	  42.9123000000
O	  47.0399000000	  36.8009000000	  43.0969000000
C	  44.8715000000	  36.8830000000	  41.6400000000
F	  43.8781000000	  36.1679000000	  41.1117000000
F	  45.2439000000	  37.7432000000	  40.7737000000
F	  44.1786000000	  37.6145000000	  42.5374000000
S	  46.8453000000	  34.1465000000	  40.1449000000
O	  45.5193000000	  33.5319000000	  40.1265000000
O	  48.0280000000	  33.3328000000	  40.3712000000
C	  46.8964000000	  34.7097000000	  38.3892000000
F	  48.0391000000	  35.4165000000	  38.2113000000
F	  46.8796000000	  33.6651000000	  37.5453000000
F	  45.9492000000	  35.5945000000	  38.1797000000
N	  45.4315000000	  40.3727000000	  45.6314000000
S	  45.1538000000	  41.1893000000	  44.3534000000
O	  45.8045000000	  40.7068000000	  43.1796000000
O	  43.7432000000	  41.4215000000	  44.2933000000
C	  45.8564000000	  42.8283000000	  44.7598000000
F	  45.1916000000	  43.5101000000	  45.6682000000
F	  45.9258000000	  43.5803000000	  43.6934000000
F	  47.0131000000	  42.7415000000	  45.2540000000
S	  46.3471000000	  39.0781000000	  45.7941000000
O	  47.6250000000	  39.1383000000	  45.0142000000
O	  45.4793000000	  37.8973000000	  45.8033000000
C	  46.7597000000	  39.3713000000	  47.5795000000
F	  47.2589000000	  40.5931000000	  47.7245000000
F	  45.7464000000	  39.1820000000	  48.4375000000
F	  47.7113000000	  38.4555000000	  47.9118000000
N	  48.0589000000	  33.3473000000	  45.1836000000
S	  49.2461000000	  34.3739000000	  45.4610000000
O	  50.5047000000	  33.6408000000	  45.5910000000
O	  49.2477000000	  35.5874000000	  44.6890000000
C	  48.8667000000	  34.9349000000	  47.0745000000
F	  49.8873000000	  35.5990000000	  47.7181000000
F	  48.3723000000	  33.9286000000	  47.8974000000
F	  47.9341000000	  35.8513000000	  46.9562000000
S	  47.9798000000	  32.3698000000	  43.9841000000
O	  48.9534000000	  32.5684000000	  42.9702000000
O	  46.5778000000	  32.2301000000	  43.5909000000
C	  48.4258000000	  30.8035000000	  44.7636000000
F	  47.7153000000	  30.3595000000	  45.7712000000
F	  48.6459000000	  29.7594000000	  43.8834000000
F	  49.5843000000	  30.8620000000	  45.3931000000
