60

Li	  45.0477000000	  21.9952000000	  12.1504000000
O	  48.5877000000	  23.2445000000	  12.0611000000
O	  46.9504000000	  21.8032000000	  12.8841000000
C	  48.4342000000	  23.5317000000	  13.4422000000
C	  47.2393000000	  22.7214000000	  13.9231000000
C	  48.0800000000	  21.9199000000	  12.0041000000
H	  49.3072000000	  23.2378000000	  13.8942000000
H	  48.3160000000	  24.5691000000	  13.7007000000
H	  47.5813000000	  22.1645000000	  14.7769000000
H	  46.3289000000	  23.3345000000	  14.1156000000
H	  47.7965000000	  21.5867000000	  11.0092000000
H	  48.8309000000	  21.2649000000	  12.3299000000
O	  43.4825000000	  22.0758000000	  13.0626000000
C	  42.3143000000	  22.9820000000	  13.0560000000
C	  40.9331000000	  22.2325000000	  13.1018000000
C	  42.4248000000	  23.9391000000	  14.2231000000
C	  42.3848000000	  23.8597000000	  11.7933000000
C	  43.5644000000	  21.1768000000	  14.1458000000
H	  40.7694000000	  21.5705000000	  13.8831000000
H	  40.0736000000	  22.8901000000	  12.9751000000
H	  40.8023000000	  21.6894000000	  12.1419000000
H	  43.0513000000	  24.7953000000	  14.1185000000
H	  41.4229000000	  24.3833000000	  14.4563000000
H	  42.8850000000	  23.5703000000	  15.1014000000
H	  42.9731000000	  24.7985000000	  11.9388000000
H	  42.8044000000	  23.3358000000	  10.9254000000
H	  41.4453000000	  24.2073000000	  11.4637000000
H	  44.6079000000	  20.9100000000	  14.4125000000
H	  43.0072000000	  21.3653000000	  15.0735000000
H	  43.1881000000	  20.2130000000	  13.8285000000
N	  45.3556000000	  18.3248000000	   9.7989400000
S	  44.6448000000	  18.8735000000	  11.0812000000
O	  44.4982000000	  17.8203000000	  12.0601000000
O	  45.1419000000	  20.1898000000	  11.5031000000
C	  42.9754000000	  19.2732000000	  10.3654000000
F	  42.6375000000	  18.2277000000	   9.6711000000
F	  43.0108000000	  20.3292000000	   9.5472300000
F	  42.1136000000	  19.4535000000	  11.3661000000
S	  46.9096000000	  18.3633000000	   9.5270900000
O	  47.3819000000	  17.0663000000	   9.2007100000
O	  47.6683000000	  19.1151000000	  10.4379000000
C	  47.0571000000	  19.3859000000	   8.0132100000
F	  48.2973000000	  19.5264000000	   7.6042700000
F	  46.5001000000	  18.8371000000	   7.0003500000
F	  46.4817000000	  20.5787000000	   8.1903500000
N	  45.7480000000	  25.4107000000	  10.3455000000
S	  46.9171000000	  26.4407000000	  10.4420000000
O	  48.2195000000	  25.9411000000	  10.5555000000
O	  46.7349000000	  27.5041000000	   9.5056200000
C	  46.5689000000	  27.2563000000	  12.1077000000
F	  46.6948000000	  26.4463000000	  13.1443000000
F	  45.3439000000	  27.7483000000	  12.1199000000
F	  47.3557000000	  28.2633000000	  12.3598000000
S	  45.8626000000	  23.9434000000	   9.7530700000
O	  45.0818000000	  23.0775000000	  10.5693000000
O	  47.1299000000	  23.5511000000	   9.3125400000
C	  44.8794000000	  24.0746000000	   8.1881300000
F	  43.5745000000	  24.2253000000	   8.4043400000
F	  45.1883000000	  25.1621000000	   7.5042100000
F	  45.0422000000	  23.0650000000	   7.3348800000
