68

Li	  33.8762000000	  28.3327000000	  52.0351000000
O	  32.6704000000	  26.1150000000	  54.8463000000
O	  32.7697000000	  27.0374000000	  52.7319000000
C	  33.8829000000	  25.6769000000	  54.2053000000
C	  33.6183000000	  25.9420000000	  52.7339000000
C	  31.9178000000	  26.7183000000	  53.7999000000
H	  34.6017000000	  26.3937000000	  54.6836000000
H	  34.1332000000	  24.6242000000	  54.3641000000
H	  34.5018000000	  26.2488000000	  52.1781000000
H	  33.1857000000	  25.0508000000	  52.3471000000
H	  31.2361000000	  25.9207000000	  53.4663000000
H	  31.4642000000	  27.6626000000	  54.1628000000
O	  32.5055000000	  29.6514000000	  52.0857000000
O	  30.8683000000	  30.8650000000	  53.1834000000
C	  31.3537000000	  29.5291000000	  51.2410000000
C	  30.2449000000	  30.4159000000	  52.0391000000
C	  32.2264000000	  30.7360000000	  52.9049000000
H	  31.6433000000	  29.9636000000	  50.2793000000
H	  31.1609000000	  28.4839000000	  51.1358000000
H	  30.1081000000	  31.3917000000	  51.5064000000
H	  29.3024000000	  29.9479000000	  52.3119000000
H	  32.8128000000	  30.7524000000	  53.7853000000
H	  32.4061000000	  31.7182000000	  52.4077000000
N	  32.2345000000	  27.9720000000	  47.7945000000
S	  32.6981000000	  28.7156000000	  46.4053000000
O	  31.7399000000	  29.6712000000	  46.0034000000
O	  34.0724000000	  28.7881000000	  46.1896000000
C	  32.1427000000	  27.4337000000	  45.2762000000
F	  32.3553000000	  27.7388000000	  44.0192000000
F	  30.8281000000	  27.0922000000	  45.3403000000
F	  32.8379000000	  26.3652000000	  45.5118000000
S	  33.1063000000	  27.1306000000	  48.8301000000
O	  33.5270000000	  27.7970000000	  49.9596000000
O	  34.0601000000	  26.2427000000	  48.1834000000
C	  31.7209000000	  25.8788000000	  49.3957000000
F	  32.2368000000	  24.7532000000	  49.7693000000
F	  31.0595000000	  26.3277000000	  50.4832000000
F	  30.8591000000	  25.5701000000	  48.5191000000
N	  36.2409000000	  30.7311000000	  55.1391000000
S	  36.2240000000	  31.8050000000	  54.0663000000
O	  37.2264000000	  31.6458000000	  53.0228000000
O	  34.8652000000	  32.1604000000	  53.5972000000
C	  36.6824000000	  33.3481000000	  55.0036000000
F	  37.8189000000	  33.1645000000	  55.6481000000
F	  35.6927000000	  33.6312000000	  55.8937000000
F	  36.7955000000	  34.4013000000	  54.2128000000
S	  35.6962000000	  29.2906000000	  55.0363000000
O	  36.5861000000	  28.3097000000	  55.5174000000
O	  34.9115000000	  28.9333000000	  53.8491000000
C	  34.3993000000	  29.2574000000	  56.3830000000
F	  33.4321000000	  30.1070000000	  56.0088000000
F	  33.8768000000	  28.0727000000	  56.5085000000
F	  34.9398000000	  29.7278000000	  57.5070000000
N	  38.3777000000	  28.4229000000	  51.4325000000
S	  38.5768000000	  27.5306000000	  52.7414000000
O	  39.3668000000	  28.0055000000	  53.8399000000
O	  37.4195000000	  26.7274000000	  53.0857000000
C	  39.6569000000	  26.2526000000	  51.9885000000
F	  40.8818000000	  26.6332000000	  51.6300000000
F	  39.0110000000	  25.8433000000	  50.9554000000
F	  39.7756000000	  25.1746000000	  52.7799000000
S	  37.1250000000	  29.0088000000	  50.6301000000
O	  37.2780000000	  30.3638000000	  50.1937000000
O	  35.8646000000	  28.5701000000	  51.1368000000
C	  37.2700000000	  28.0302000000	  49.0581000000
F	  36.9791000000	  26.7389000000	  49.2372000000
F	  36.4607000000	  28.4889000000	  48.1006000000
F	  38.4562000000	  28.0203000000	  48.4944000000
