61

Li	  24.7718000000	  34.5333000000	  23.1937000000
O	  24.3480000000	  36.5242000000	  22.8917000000
O	  25.2647000000	  38.6128000000	  23.3110000000
C	  24.2871000000	  37.3241000000	  21.7453000000
C	  25.2698000000	  38.4606000000	  21.9550000000
C	  24.5624000000	  37.5469000000	  23.9007000000
H	  24.4839000000	  36.7652000000	  20.7813000000
H	  23.3418000000	  37.8437000000	  21.7170000000
H	  26.2600000000	  38.1020000000	  21.6287000000
H	  25.0411000000	  39.3394000000	  21.4241000000
H	  23.6439000000	  37.9775000000	  24.2025000000
H	  25.1502000000	  37.1046000000	  24.7592000000
O	  25.9786000000	  34.6708000000	  21.6265000000
O	  26.9166000000	  34.7335000000	  19.6572000000
C	  27.3494000000	  34.4007000000	  21.8120000000
C	  27.9322000000	  34.8991000000	  20.5136000000
C	  25.7363000000	  34.3114000000	  20.2848000000
H	  27.7611000000	  34.9171000000	  22.7147000000
H	  27.6108000000	  33.3251000000	  21.8245000000
H	  28.1703000000	  35.9407000000	  20.6967000000
H	  28.8347000000	  34.4057000000	  20.1781000000
H	  25.8396000000	  33.2678000000	  20.2379000000
H	  24.8111000000	  34.7211000000	  19.7839000000
N	  23.2383000000	  30.3666000000	  21.9935000000
S	  24.2135000000	  31.3721000000	  21.3527000000
O	  23.6368000000	  32.1066000000	  20.2390000000
O	  24.7456000000	  32.1966000000	  22.3931000000
C	  25.5436000000	  30.2622000000	  20.7807000000
F	  26.4605000000	  31.0177000000	  20.1776000000
F	  25.1961000000	  29.3055000000	  19.8869000000
F	  26.0863000000	  29.6558000000	  21.8594000000
S	  21.7434000000	  30.0596000000	  21.6577000000
O	  21.1902000000	  30.9205000000	  20.6166000000
O	  21.0581000000	  29.7209000000	  22.8964000000
C	  22.0244000000	  28.4846000000	  20.8186000000
F	  20.9020000000	  27.8470000000	  20.3751000000
F	  22.7678000000	  28.5537000000	  19.7433000000
F	  22.6491000000	  27.6262000000	  21.5827000000
N	  20.5450000000	  35.7228000000	  21.5392000000
S	  20.9623000000	  35.2988000000	  20.0901000000
O	  22.3966000000	  35.3585000000	  19.7717000000
O	  20.2659000000	  34.1065000000	  19.6027000000
C	  20.2984000000	  36.6273000000	  19.0341000000
F	  20.5387000000	  36.3640000000	  17.7515000000
F	  20.7665000000	  37.8726000000	  19.2719000000
F	  18.9932000000	  36.6761000000	  19.1042000000
S	  21.2271000000	  35.3881000000	  22.9456000000
O	  21.4042000000	  36.5069000000	  23.8762000000
O	  22.4252000000	  34.6077000000	  22.7614000000
C	  20.0431000000	  34.2810000000	  23.7572000000
F	  19.9102000000	  33.2021000000	  23.0265000000
F	  20.4657000000	  33.9404000000	  24.9854000000
F	  18.8577000000	  34.8255000000	  23.9349000000
S	  24.9080000000	  34.1006000000	  25.2544000000
S	  23.9383000000	  34.9721000000	  26.9162000000
S	  25.2450000000	  36.4839000000	  27.8941000000
S	  26.8103000000	  41.3986000000	  27.6486000000
S	  28.8665000000	  41.7548000000	  28.2112000000
S	  30.2390000000	  40.7328000000	  27.1155000000
S	  25.9865000000	  39.8351000000	  28.6368000000
S	  25.0901000000	  38.4849000000	  27.3184000000
