68

Li	   5.9131300000	  46.7545000000	  22.6960000000
O	   6.2378500000	  50.2853000000	  24.8733000000
O	   6.3160400000	  48.3900000000	  23.6995000000
C	   7.6445300000	  50.0103000000	  24.8502000000
C	   7.6824400000	  48.6055000000	  24.2433000000
C	   5.7408000000	  49.6146000000	  23.7591000000
H	   8.2035300000	  50.7122000000	  24.2588000000
H	   8.0728200000	  49.9667000000	  25.8832000000
H	   8.5538300000	  48.5740000000	  23.5460000000
H	   7.8911200000	  47.8181000000	  25.0488000000
H	   4.6956600000	  49.4735000000	  23.9599000000
H	   5.7860200000	  50.2195000000	  22.9134000000
O	   7.4517800000	  45.7783000000	  22.5201000000
O	   8.9802800000	  44.4820000000	  21.4473000000
C	   7.5582100000	  44.6077000000	  23.3800000000
C	   8.5867700000	  43.7275000000	  22.6354000000
C	   8.6574700000	  45.7631000000	  21.7613000000
H	   7.8209300000	  44.7150000000	  24.4197000000
H	   6.5491400000	  44.1503000000	  23.4322000000
H	   9.5191500000	  43.6995000000	  23.3020000000
H	   8.2555100000	  42.7464000000	  22.3116000000
H	   8.5741300000	  46.2341000000	  20.8484000000
H	   9.4960800000	  46.1591000000	  22.3104000000
N	   5.7470000000	  47.2004000000	  27.2815000000
S	   5.1244600000	  46.0157000000	  26.3765000000
O	   5.6700400000	  45.9210000000	  25.0324000000
O	   4.9176100000	  44.8243000000	  27.1699000000
C	   3.5227400000	  46.7353000000	  26.2211000000
F	   3.4815300000	  47.8981000000	  25.6273000000
F	   2.8971400000	  46.8915000000	  27.3765000000
F	   2.7834300000	  45.9075000000	  25.5570000000
S	   6.2022400000	  47.1513000000	  28.7781000000
O	   6.7781400000	  45.9016000000	  29.1638000000
O	   5.4184100000	  47.9047000000	  29.6789000000
C	   7.6183500000	  48.3454000000	  28.6657000000
F	   8.1716200000	  48.5571000000	  29.7680000000
F	   8.5483000000	  47.9689000000	  27.7644000000
F	   7.1666800000	  49.5369000000	  28.2423000000
N	   3.2180000000	  44.4372000000	  20.5986000000
S	   2.4715400000	  44.9052000000	  19.2920000000
O	   1.3082600000	  45.6178000000	  19.6813000000
O	   3.3509500000	  45.4182000000	  18.2726000000
C	   1.8886300000	  43.3870000000	  18.5234000000
F	   2.7531900000	  42.9053000000	  17.6205000000
F	   0.7432130251	  43.4722000000	  17.8441000000
F	   1.7170300000	  42.4006000000	  19.4123000000
S	   3.0906900000	  44.9875000000	  22.0382000000
O	   1.9288100000	  45.6965000000	  22.4298000000
O	   4.3374100000	  45.4953000000	  22.5293000000
C	   3.0339500000	  43.4083000000	  22.9929000000
F	   1.9485500000	  42.7132000000	  22.7959000000
F	   3.9714600000	  42.6451000000	  22.6438000000
F	   3.1435600000	  43.6492000000	  24.2875000000
N	   4.6114500000	  48.9715000000	  18.9568000000
S	   3.2912500000	  49.4521000000	  19.7390000000
O	   2.2792000000	  48.3887000000	  19.9230000000
O	   3.6298400000	  50.2861000000	  20.8767000000
C	   2.6132000000	  50.6266000000	  18.5773000000
F	   3.4640600000	  51.6302000000	  18.3654000000
F	   1.5131400000	  51.1636000000	  19.1385000000
F	   2.1642700000	  50.0232000000	  17.4890000000
S	   5.8721500000	  48.2202000000	  19.4967000000
O	   6.3732300000	  47.3113000000	  18.4995000000
O	   5.8220200000	  47.8102000000	  20.8855000000
C	   7.0826100000	  49.6560000000	  19.4586000000
F	   8.2852200000	  49.4462000000	  19.9009000000
F	   7.2873000000	  50.0734000000	  18.2615000000
F	   6.5336300000	  50.6208000000	  20.1208000000
