35

Li	  13.6161000000	  35.9831000000	  27.6888000000
O	  14.5259000000	  34.5759000000	  27.0224000000
O	  15.9395000000	  32.7783000000	  26.8176000000
C	  14.0470000000	  33.7206000000	  25.9855000000
C	  15.1303000000	  32.7681000000	  25.6751000000
C	  15.7493000000	  34.1177000000	  27.2514000000
H	  13.2114000000	  33.1595000000	  26.3865000000
H	  13.6177000000	  34.1489000000	  25.0813000000
H	  14.6342000000	  31.8319000000	  25.3860000000
H	  15.7570000000	  33.2040000000	  24.8765000000
H	  16.5237000000	  34.7030000000	  26.8325000000
H	  16.0620000000	  34.2253000000	  28.2904000000
N	  12.8671000000	  35.6275000000	  30.8473000000
S	  14.1664000000	  36.5054000000	  30.6000000000
O	  14.6031000000	  36.4373000000	  29.2302000000
O	  14.3774000000	  37.7078000000	  31.3512000000
C	  15.3116000000	  35.4340000000	  31.4609000000
F	  14.8074000000	  35.1889000000	  32.6416000000
F	  16.4817000000	  35.9790000000	  31.7210000000
F	  15.5041000000	  34.3050000000	  30.8128000000
S	  11.8704000000	  35.0404000000	  29.8533000000
O	  12.1045000000	  35.4670000000	  28.4706000000
O	  10.4857000000	  35.0995000000	  30.3352000000
C	  12.4024000000	  33.3365000000	  29.8212000000
F	  13.7000000000	  33.2322000000	  29.4430000000
F	  12.1602000000	  32.6601000000	  30.9513000000
F	  11.6814000000	  32.7319000000	  28.9382000000
S	  13.9514000000	  37.9302000000	  26.7856000000
S	  12.8898000000	  37.8754000000	  24.9491000000
S	  11.3754000000	  36.3330000000	  25.0496000000
S	   9.3679500000	  38.3668000000	  28.8873000000
S	  10.5076000000	  38.2436000000	  30.7576000000
S	   9.2491000000	  37.8396000000	  32.4410000000
S	   9.0156400000	  36.7560000000	  27.6538000000
S	   9.5220200000	  37.1183000000	  25.6866000000
