35

Li	   3.2031300000	  11.0653000000	  48.3951000000
O	   3.2098500000	   9.2184300000	  49.1539000000
O	   2.3446900000	   7.5919600000	  50.5295000000
C	   3.1444800000	   9.7655900000	  50.5014000000
C	   2.3950600000	   8.6997300000	  51.3713000000
C	   3.2552000000	   7.8621100000	  49.5141000000
H	   4.1078900000	   9.8365000000	  50.8903000000
H	   2.6822300000	  10.7526000000	  50.6623000000
H	   3.1062800000	   8.4406300000	  52.1872000000
H	   1.3912200000	   9.0046000000	  51.7401000000
H	   2.9703700000	   7.2479800000	  48.5910000000
H	   4.2432300000	   7.5892100000	  49.8126000000
N	  -0.2605869749	  13.7971000000	  48.1633000000
S	   0.8560130251	  13.4144000000	  49.2504000000
O	   1.6521700000	  12.3028000000	  48.8166000000
O	   1.4866400000	  14.5820000000	  49.8474000000
C	  -0.1557869749	  12.7036000000	  50.6252000000
F	   0.7198130251	  12.1397000000	  51.4801000000
F	  -0.9912869749	  11.7456000000	  50.1758000000
F	  -0.8989869749	  13.5764000000	  51.2848000000
S	  -0.7290869749	  15.2644000000	  47.7829000000
O	  -0.9826869749	  15.4366000000	  46.3810000000
O	  -0.0389869749	  16.3106000000	  48.4242000000
C	  -2.4146869749	  15.3629000000	  48.3815000000
F	  -2.4070869749	  15.0542000000	  49.6259000000
F	  -2.9869869749	  16.5768000000	  48.2430000000
F	  -3.1909869749	  14.5089000000	  47.6753000000
S	   4.7460100000	  12.4113000000	  48.8944000000
S	   4.8697900000	  11.5925000000	  46.9005000000
S	   2.9942700000	  11.8514000000	  46.0869000000
S	  -0.5148869749	   7.8981200000	  46.4886000000
S	  -2.4639869749	   8.3376200000	  45.7165000000
S	  -2.4616869749	   8.1112400000	  43.6886000000
S	   0.5720130251	   9.6257500000	  47.1863000000
S	   2.2293200000	   9.9199400000	  45.9677000000
