42

Li	   3.3048200000	  39.7822000000	  19.4503000000
O	   4.2139600000	  38.2027000000	  18.1054000000
O	   4.5202400000	  36.0026000000	  18.0099000000
C	   3.7870500000	  37.8913000000	  16.8819000000
C	   3.8785800000	  36.3608000000	  16.7853000000
C	   5.0219500000	  37.1984000000	  18.4502000000
H	   2.7391400000	  38.1571000000	  16.9108000000
H	   4.3186900000	  38.4121000000	  16.1793000000
H	   2.9285900000	  35.6900000000	  16.7766000000
H	   4.4812600000	  35.9125000000	  15.9748000000
H	   6.0080000000	  37.3975000000	  18.0735000000
H	   5.2205700000	  37.1192000000	  19.4500000000
N	   1.5839300000	  37.8738000000	  21.8500000000
S	   0.6714130251	  38.8890000000	  21.0448000000
O	  -0.0724869749	  39.8338000000	  21.8570000000
O	   1.3592700000	  39.3607000000	  19.7954000000
C	  -0.6561869749	  37.7389000000	  20.4687000000
F	  -0.1149869749	  36.6551000000	  19.9545000000
F	  -1.3502869749	  38.3483000000	  19.4816000000
F	  -1.5708869749	  37.3530000000	  21.3830000000
S	   3.1647700000	  38.0016000000	  22.0553000000
O	   3.5430600000	  38.5103000000	  23.3809000000
O	   3.8661900000	  38.5618000000	  20.9088000000
C	   3.7085300000	  36.2370000000	  22.0415000000
F	   3.2327000000	  35.5207000000	  21.0140000000
F	   5.0230900000	  36.1523000000	  21.9099000000
F	   3.3231200000	  35.6271000000	  23.1167000000
N	   5.2680100000	  42.2328000000	  21.1311000000
S	   4.0215100000	  41.8590000000	  21.9311000000
O	   3.0531600000	  41.1523000000	  21.1962000000
O	   4.2533900000	  41.4606000000	  23.2926000000
C	   3.1504200000	  43.4754000000	  22.0414000000
F	   3.1192600000	  44.1809000000	  20.9040000000
F	   3.7020000000	  44.2323000000	  22.9938000000
F	   1.9065600000	  43.4069000000	  22.4226000000
S	   5.9705100000	  41.2302000000	  20.1446000000
O	   5.0188600000	  40.6207000000	  19.1929000000
O	   6.9875700000	  40.4057000000	  20.6951000000
C	   6.8855500000	  42.4075000000	  19.1717000000
F	   6.0293100000	  43.1648000000	  18.4915000000
F	   7.5894200000	  43.2473000000	  19.9259000000
F	   7.6961500000	  41.9098000000	  18.2436000000
