39

Li	  45.2692000000	  48.8459000000	  12.2035000000
N	  48.3453000000	  51.4532000000	  11.1881000000
S	  46.8043000000	  51.4883000000	  10.8106000000
O	  46.0213000000	  50.3103000000	  11.1782000000
O	  46.2986000000	  52.8215000000	  11.0311000000
C	  46.8316000000	  51.4570000000	   8.9157800000
F	  45.6072000000	  51.4742000000	   8.4490800000
F	  47.3594000000	  50.2838000000	   8.5501600000
F	  47.5263000000	  52.4162000000	   8.3672200000
S	  49.1812000000	  50.2758000000	  11.7823000000
O	  48.6476000000	  48.9549000000	  11.4764000000
O	  49.7624000000	  50.5179000000	  13.0855000000
C	  50.6641000000	  50.4801000000	  10.7126000000
F	  51.2811000000	  51.6427000000	  10.8989000000
F	  51.5489000000	  49.5475000000	  10.8577000000
F	  50.3556000000	  50.5684000000	   9.3991700000
N	  45.3884000000	  51.9345000000	  15.5146000000
S	  45.0113000000	  50.4673000000	  15.1022000000
O	  45.3593000000	  50.1659000000	  13.7573000000
O	  45.1772000000	  49.4815000000	  16.1207000000
C	  43.2320000000	  50.5535000000	  14.9351000000
F	  42.8523000000	  51.5292000000	  14.1629000000
F	  42.6043000000	  50.7434000000	  16.0383000000
F	  42.7590000000	  49.4415000000	  14.4486000000
S	  46.5101000000	  52.7631000000	  14.7979000000
O	  46.0394000000	  53.6473000000	  13.7302000000
O	  47.6441000000	  51.9784000000	  14.4311000000
C	  47.2382000000	  53.8053000000	  16.1013000000
F	  48.2058000000	  54.5803000000	  15.6306000000
F	  46.3497000000	  54.5091000000	  16.6805000000
F	  47.7986000000	  53.0794000000	  17.0341000000
S	  43.4178000000	  48.7814000000	  10.9890000000
S	  41.9531000000	  47.3845000000	  11.3314000000
S	  41.8616000000	  46.1319000000	   9.6367100000
S	  46.2286000000	  44.5946000000	  10.9295000000
S	  46.8184000000	  46.5860000000	  11.5614000000
S	  45.8854000000	  47.1174000000	  13.4289000000
S	  45.0216000000	  44.6963000000	   9.2348400000
S	  42.9702000000	  44.3559000000	   9.6535100000
