28

Li	  48.4566000000	  21.1227000000	  36.2674000000
O	  46.3785000000	  20.3291000000	  37.1019000000
O	  44.5053000000	  19.8882000000	  35.7968000000
C	  45.9740000000	  18.9128000000	  37.2410000000
C	  45.0618000000	  18.5873000000	  36.0754000000
C	  45.3069000000	  20.8720000000	  36.4003000000
H	  46.8889000000	  18.3697000000	  37.3223000000
H	  45.3768000000	  18.8862000000	  38.1168000000
H	  45.6895000000	  18.4210000000	  35.1688000000
H	  44.3526000000	  17.7628000000	  36.3561000000
H	  44.6532000000	  21.5446000000	  37.0229000000
H	  45.7052000000	  21.5188000000	  35.6214000000
S	  49.8617000000	  21.1087000000	  34.1087000000
S	  48.3391000000	  19.6379000000	  33.8555000000
S	  47.1752000000	  19.9429000000	  32.1577000000
S	  45.5847000000	  23.9396000000	  34.3557000000
S	  47.6256000000	  24.3687000000	  34.6436000000
S	  48.4264000000	  23.3468000000	  36.2909000000
S	  45.2589000000	  23.0507000000	  32.4658000000
S	  45.3500000000	  20.9126000000	  32.6359000000
S	  58.2905000000	  27.3441000000	  37.9059000000
S	  58.4223000000	  25.2662000000	  37.8667000000
S	  56.6792000000	  24.2062000000	  38.3520000000
S	  52.7716000000	  21.5261000000	  37.3257000000
S	  50.8439000000	  21.7006000000	  38.0698000000
S	  49.6041000000	  19.9358000000	  37.9998000000
S	  53.5526000000	  23.5246000000	  37.1430000000
S	  55.6064000000	  23.5274000000	  36.6932000000
