72

Li	  48.3618000000	   3.1155700000	  49.4241000000
O	  49.5549000000	   1.9780700000	  48.3934000000
O	  51.2927000000	   1.4618500000	  46.9821000000
C	  49.9783000000	   0.6809100389	  48.7596000000
C	  51.3147000000	   0.5557100389	  47.9869000000
C	  50.1636000000	   2.2626700000	  47.1688000000
H	  50.0446000000	   0.5027100389	  49.7904000000
H	  49.2461000000	  -0.0035899611	  48.3955000000
H	  52.1278000000	   0.7836100389	  48.7190000000
H	  51.2643000000	  -0.4652899611	  47.7060000000
H	  49.5933000000	   1.9042000000	  46.3183000000
H	  50.2209000000	   3.2599300000	  46.8041000000
N	  44.9153000000	   0.8985100389	  50.0846000000
S	  46.1612000000	   0.8182100389	  51.0293000000
O	  47.2752000000	   1.5879400000	  50.6220000000
O	  45.9673000000	   0.8534100389	  52.4918000000
C	  46.7934000000	  -0.8332899611	  50.7825000000
F	  46.6181000000	  -1.2094899611	  49.5538000000
F	  46.0904000000	  -1.7001899611	  51.5112000000
F	  48.0513000000	  -1.1084899611	  51.0960000000
S	  43.4316000000	   0.7344100389	  50.4529000000
O	  42.5601000000	   1.7401500000	  49.8297000000
O	  43.1967000000	   0.3976100389	  51.8085000000
C	  42.9405000000	  -0.7435899611	  49.4741000000
F	  41.6435000000	  -0.8630899611	  49.5873000000
F	  43.1366000000	  -0.6999899611	  48.2032000000
F	  43.4672000000	  -1.8712899611	  49.9446000000
N	  50.9979000000	   5.1645900000	  50.9517000000
S	  50.6175000000	   3.9807200000	  51.9634000000
O	  50.3487000000	   4.3772000000	  53.3161000000
O	  49.8295000000	   2.9515400000	  51.3937000000
C	  52.2827000000	   3.2376300000	  52.1099000000
F	  52.8089000000	   2.9689100000	  50.9885000000
F	  52.3760000000	   2.1446700000	  52.8760000000
F	  53.0615000000	   4.1699500000	  52.5964000000
S	  50.1782000000	   5.7126500000	  49.6787000000
O	  49.7177000000	   7.0388000000	  49.8726000000
O	  49.2699000000	   4.7304200000	  49.1094000000
C	  51.4535000000	   5.7502000000	  48.4033000000
F	  52.0538000000	   4.5799600000	  48.3410000000
F	  51.0463000000	   6.0769400000	  47.2100000000
F	  52.3816000000	   6.6807800000	  48.6672000000
N	  45.8840000000	   4.3237200000	  46.0105000000
S	  46.9482000000	   5.4204600000	  45.8908000000
O	  46.4946000000	   6.7582700000	  46.2614000000
O	  48.2668000000	   4.9637100000	  46.3473000000
C	  47.1700000000	   5.5357500000	  44.0555000000
F	  46.0434000000	   5.2100800000	  43.3950000000
F	  47.9968000000	   4.6295400000	  43.5389000000
F	  47.5543000000	   6.7595700000	  43.6304000000
S	  45.7968000000	   3.4339000000	  47.2886000000
O	  44.5384000000	   3.5854300000	  47.9393000000
O	  47.0036000000	   3.2309200000	  48.0743000000
C	  45.7562000000	   1.8140700000	  46.3947000000
F	  46.7194000000	   1.6646800000	  45.4571000000
F	  45.7691000000	   0.8291100389	  47.1985000000
F	  44.6009000000	   1.6967600000	  45.8137000000
N	  45.4912000000	   5.5539200000	  52.2579000000
S	  44.5207000000	   4.3570900000	  52.2410000000
O	  43.8720000000	   4.1404300000	  51.0078000000
O	  44.9922000000	   3.2230100000	  53.0172000000
C	  43.1029000000	   4.9652000000	  53.1895000000
F	  42.0860000000	   4.0547500000	  53.3418000000
F	  42.5260000000	   6.0396200000	  52.6692000000
F	  43.5172000000	   5.2373800000	  54.4449000000
S	  46.7638000000	   5.7042800000	  51.4212000000
O	  47.1151000000	   4.4272300000	  50.7886000000
O	  47.7446000000	   6.5275900000	  52.0968000000
C	  46.1786000000	   6.8800700000	  50.0948000000
F	  45.0404000000	   6.5768600000	  49.5696000000
F	  45.9961000000	   8.1080800000	  50.5338000000
F	  47.0337000000	   7.1491500000	  49.1021000000
