43

Li	  50.8004000000	  38.8033000000	  30.6909000000
O	  48.2598000000	  37.3470000000	  33.5163000000
O	  49.8409000000	  37.8906000000	  32.0416000000
C	  49.3824000000	  36.5214000000	  33.8682000000
C	  50.4276000000	  36.8819000000	  32.8330000000
C	  48.5219000000	  37.7968000000	  32.2094000000
H	  49.6448000000	  36.6777000000	  34.9140000000
H	  49.1819000000	  35.4594000000	  33.7112000000
H	  51.3151000000	  37.2852000000	  33.2289000000
H	  50.5446000000	  36.1007000000	  32.0512000000
H	  48.1787000000	  37.0171000000	  31.5780000000
H	  47.8861000000	  38.6485000000	  31.9237000000
N	  55.0164000000	  37.1205000000	  31.3410000000
S	  53.8550000000	  37.0235000000	  30.2693000000
O	  53.6384000000	  35.6619000000	  29.8489000000
O	  52.6921000000	  37.8394000000	  30.5865000000
C	  54.6018000000	  37.9148000000	  28.8234000000
F	  55.8598000000	  37.5443000000	  28.4596000000
F	  54.7079000000	  39.2217000000	  29.0907000000
F	  53.8586000000	  37.8956000000	  27.7054000000
S	  54.9235000000	  37.4874000000	  32.8943000000
O	  56.0419000000	  36.8953000000	  33.5640000000
O	  53.5889000000	  37.3665000000	  33.4979000000
C	  55.4248000000	  39.2308000000	  32.8179000000
F	  56.6117000000	  39.3576000000	  32.2395000000
F	  54.5486000000	  39.9409000000	  32.1025000000
F	  55.5228000000	  39.8012000000	  34.0170000000
S	  54.9149000000	  39.3093000000	  22.2382000000
S	  53.4442000000	  40.6222000000	  22.9009000000
S	  54.0425000000	  42.1773000000	  24.0562000000
S	  51.8893000000	  40.6100000000	  28.4643000000
S	  50.9231000000	  41.8454000000	  29.8199000000
S	  50.3292000000	  40.7732000000	  31.5286000000
S	  53.4994000000	  41.6459000000	  27.4666000000
S	  52.7261000000	  42.4047000000	  25.7170000000
S	  49.3038000000	  38.2687000000	  28.7489000000
S	  50.1855000000	  36.3376000000	  28.6818000000
S	  48.7756000000	  34.9227000000	  29.3195000000
S	  47.0636000000	  30.4695000000	  28.6357000000
S	  46.2824000000	  29.6304000000	  26.8038000000
S	  45.4003000000	  27.6920000000	  27.1022000000
S	  48.7016000000	  31.6348000000	  28.0518000000
S	  48.0767000000	  33.7060000000	  27.7438000000
