54

Li	  33.1874000000	   1.8390000000	  55.0185000000
N	  35.8103000000	   3.3325700000	  52.7093000000
S	  36.5026000000	   2.1826000000	  52.0628000000
O	  37.5027000000	   1.6118500000	  52.9610000000
O	  35.6133000000	   1.2475000000	  51.3382000000
C	  37.4626000000	   3.0862800000	  50.7635000000
F	  36.6005000000	   3.9151800000	  50.1569000000
F	  38.0942000000	   2.3387500000	  49.8735000000
F	  38.3853000000	   3.8142100000	  51.4371000000
S	  34.3174000000	   3.7432700000	  52.7027000000
O	  33.5639000000	   3.5835400000	  53.9669000000
O	  33.5118000000	   3.5108700000	  51.5194000000
C	  34.5446000000	   5.5523700000	  52.5202000000
F	  35.2570000000	   6.0470200000	  53.5309000000
F	  35.0877000000	   5.8703100000	  51.3784000000
F	  33.3746000000	   6.1692900000	  52.5634000000
N	  35.9330000000	   2.9085500000	  57.5278000000
S	  36.0072000000	   1.6887700000	  56.5037000000
O	  34.9226000000	   1.6515000000	  55.5618000000
O	  37.3596000000	   1.4459600000	  56.0298000000
C	  35.7734000000	   0.2955100389	  57.6715000000
F	  36.6191000000	   0.3929100389	  58.6962000000
F	  35.9891000000	  -0.8494899611	  57.0866000000
F	  34.5348000000	   0.2623100389	  58.1838000000
S	  36.0403000000	   4.4465900000	  57.1481000000
O	  34.8958000000	   5.2838100000	  57.3767000000
O	  36.8646000000	   4.6867800000	  55.9771000000
C	  37.1406000000	   5.0887100000	  58.4395000000
F	  36.6624000000	   4.8229100000	  59.6579601245
F	  38.3440000000	   4.5776800000	  58.3396000000
F	  37.2140000000	   6.4198300000	  58.4037000000
N	  32.2282000000	  -1.3881899611	  52.4309000000
S	  30.8311000000	  -2.0742899611	  52.3574000000
O	  30.1102000000	  -1.9109899611	  53.6076000000
O	  30.1332000000	  -2.0116899611	  51.0975000000
C	  31.2687000000	  -3.8368899611	  52.4234000000
F	  32.1033000000	  -4.1903899611	  51.5174000000
F	  30.1614000000	  -4.6031899611	  52.2920000000
F	  31.7154000000	  -4.2274899611	  53.6056000000
S	  32.9917000000	  -0.8868899611	  53.7324000000
O	  32.4969000000	  -1.3083899611	  55.0031000000
O	  33.1882000000	   0.5247100389	  53.6028000000
C	  34.6525000000	  -1.6651899611	  53.6307000000
F	  35.1945000000	  -1.2558899611	  52.4367000000
F	  35.4206000000	  -1.2414899611	  54.6001000000
F	  34.7112000000	  -3.0122899611	  53.6006000000
S	  32.0573000000	   2.2954100000	  56.7398000000
S	  30.7008000000	   1.4048400000	  55.4406000000
S	  30.3455000000	   2.6030200000	  53.6617000000
S	  26.2580000000	  -0.0022899611	  52.8313000000
S	  25.8923000000	  -0.1127899611	  54.9480000000
S	  27.1537000000	  -1.4898899611	  56.0369000000
S	  27.1746000000	   1.7436600000	  52.2826000000
S	  29.1987000000	   1.4979200000	  52.3091000000
