53

Li	  44.3118000000	  20.9503000000	  58.7083000000
O	  43.0494000000	  20.5776000000	  54.7724000000
O	  43.3560000000	  20.7423000000	  57.0213000000
C	  42.6328000000	  21.9097000000	  55.1145000000
C	  42.3671000000	  21.7471000000	  56.6315000000
C	  43.3559000000	  19.8980000000	  55.9344000000
H	  43.6158000000	  22.4701000000	  54.9554000000
H	  41.7754000000	  22.3018000000	  54.5671000000
H	  42.6340000000	  22.6442000000	  57.1744000000
H	  41.3149000000	  21.4864000000	  56.7635000000
H	  42.5456000000	  19.1716000000	  55.9593000000
H	  44.2805000000	  19.3869000000	  55.8693000000
O	  41.9648000000	  20.8857000000	  61.8816701245
O	  42.9960000000	  21.2571000000	  59.9327001245
C	  40.9384000000	  21.6522000000	  61.2178301245
C	  41.6422000000	  21.5789000000	  59.8258101245
C	  43.1678000000	  21.0451000000	  61.2705601245
H	  39.9269000000	  21.2365000000	  61.2950101245
H	  40.9742000000	  22.6606000000	  61.6280601245
H	  41.3292000000	  20.7157000000	  59.2446401245
H	  41.4604000000	  22.3941000000	  59.1344601245
H	  43.5611000000	  21.9344000000	  61.7196001245
H	  43.8783000000	  20.2842000000	  61.6089101245
N	  47.6669000000	  20.5173000000	  58.3115000000
S	  46.9485000000	  21.0172000000	  57.0560000000
O	  46.8222000000	  20.0189000000	  56.0558000000
O	  45.7811000000	  21.7687000000	  57.3114000000
C	  48.1157000000	  22.2139000000	  56.4425000000
F	  47.7993000000	  22.7425000000	  55.2420000000
F	  49.3127000000	  21.6985000000	  56.3066000000
F	  48.2256000000	  23.1981000000	  57.3062000000
S	  47.3489000000	  20.5344000000	  59.9208401245
O	  47.7288000000	  19.2747000000	  60.5736101245
O	  46.0371000000	  20.9672000000	  60.2422101245
C	  48.5910000000	  21.7409000000	  60.6066101245
F	  48.6114000000	  22.8144000000	  59.9205801245
F	  48.3543000000	  22.0692000000	  61.8915501245
F	  49.8315000000	  21.3463000000	  60.5557501245
N	  44.4697000000	  16.7885000000	  57.5476000000
S	  44.6323000000	  17.5180000000	  58.8892000000
O	  45.7120000000	  17.1729000000	  59.7933301245
O	  44.2375000000	  18.9226000000	  58.8972000000
C	  43.0936000000	  16.8279000000	  59.6207501245
F	  42.0756000000	  17.4137000000	  59.0705801245
F	  43.0366000000	  17.0832000000	  60.9318901245
F	  42.9750000000	  15.5173000000	  59.5992501245
S	  45.4765000000	  15.8892000000	  56.8403000000
O	  46.8069000000	  16.3556000000	  57.1774000000
O	  45.2339000000	  15.6916000000	  55.4606000000
C	  45.1875000000	  14.1821000000	  57.6792000000
F	  45.5401000000	  14.1084000000	  58.9219000000
F	  43.8917000000	  13.7840000000	  57.6341000000
F	  45.8960000000	  13.2502000000	  57.0607000000
