28

Li	  54.9759000000	  20.4829000000	  31.7353000000
O	  55.0955000000	  22.2880000000	  31.5776000000
O	  56.0285000000	  24.0893000000	  30.6841000000
C	  55.2528000000	  23.1434000000	  32.7045000000
C	  55.7443000000	  24.4265000000	  32.0257000000
C	  56.0030000000	  22.6817000000	  30.7238000000
H	  54.3210000000	  23.2051000000	  33.2478000000
H	  56.0413000000	  22.6932000000	  33.3110000000
H	  54.9542000000	  25.2113000000	  32.0745000000
H	  56.6039000000	  24.7939000000	  32.5284000000
H	  56.9873000000	  22.4165000000	  31.0102000000
H	  55.8757000000	  22.2714000000	  29.6971000000
S	  53.5352000000	  19.4882000000	  30.5985000000
S	  53.0129000000	  17.4173000000	  30.5172000000
S	  54.5930000000	  16.4180000000	  29.4569000000
S	  54.4463000000	  19.3202000000	  25.6797000000
S	  54.5987000000	  21.0274000000	  26.9217000000
S	  52.8769000000	  21.5193000000	  28.0164000000
S	  55.4758000000	  17.5176000000	  26.3087000000
S	  54.1319000000	  16.2892000000	  27.3233000000
S	  48.8002000000	  23.1359000000	  35.1153000000
S	  49.6814000000	  24.4803000000	  36.4322000000
S	  51.6068000000	  25.1178000000	  35.6785000000
S	  54.8254000000	  21.4320000000	  36.5756000000
S	  55.9762000000	  20.3295000000	  35.1479000000
S	  54.8135000000	  19.3991000000	  33.6800000000
S	  54.7211000000	  23.5519000000	  36.1190000000
S	  53.1782000000	  24.6262000000	  36.9665000000
