64

Li	  29.9515000000	   8.9116200000	   1.7898900000
O	  28.1022000000	  12.5459000000	   2.2256000000
O	  29.0871000000	  10.6499000000	   1.5574000000
C	  28.6984000000	  12.6131000000	   0.8625498755
C	  28.7335000000	  11.2357000000	   0.3427498755
C	  28.2311000000	  11.2331000000	   2.4819600000
H	  28.0469000000	  13.1205000000	   0.1596498755
H	  29.7290000000	  13.0280000000	   0.9387498755
H	  27.7590000000	  10.8919000000	   0.0453498755
H	  29.4515000000	  10.9126000000	  -0.3953501245
H	  28.4495000000	  10.9841000000	   3.5229800000
H	  27.1696000000	  10.8726000000	   2.2469400000
O	  31.1677000000	   6.8596000000	  -1.9055501245
O	  29.8978000000	   7.9919700000	  -0.2944501245
C	  29.8069000000	   6.4563000000	  -2.0686501245
C	  28.9931000000	   7.3679800000	  -1.2457501245
C	  31.1026000000	   7.8704400000	  -0.9862501245
H	  29.5825000000	   6.3682300000	  -3.0917501245
H	  29.6765000000	   5.4465400000	  -1.6060501245
H	  28.5564000000	   8.0326600000	  -1.9450501245
H	  28.1472000000	   6.7916600000	  -0.9027501245
H	  32.0391000000	   7.7293700000	  -0.3840501245
H	  31.3576000000	   8.8072700000	  -1.3721501245
O	  30.3099000000	   6.5896200000	   2.1982900000
O	  30.9000000000	   4.3796400000	   2.1216800000
C	  31.6663000000	   6.5390100000	   2.4267400000
C	  31.7536000000	   5.1091300000	   2.9875600000
C	  30.0328000000	   5.3591900000	   1.5888500000
H	  32.4404000000	   6.6485600000	   1.6776100000
H	  31.8338000000	   7.2130100000	   3.3481400000
H	  32.7614000000	   4.7003400000	   3.0208000000
H	  31.4129000000	   4.9898200000	   3.9849000000
H	  28.9280000000	   5.1448300000	   1.5083500000
H	  30.3912000000	   5.3770000000	   0.5478498755
N	  32.4733000000	  11.0136000000	   3.1109100000
S	  31.7107000000	  10.3587000000	   4.2139400000
O	  31.1676000000	  11.3148000000	   5.1110500000
O	  30.9286000000	   9.1888000000	   3.8650500000
C	  33.0557000000	   9.6579800000	   5.2987400000
F	  33.8735000000	  10.5474000000	   5.7948700000
F	  33.8105000000	   8.7970900000	   4.6656600000
F	  32.5064000000	   9.0178600000	   6.2781600000
S	  32.4234000000	  10.8187000000	   1.5321200000
O	  31.9383000000	  11.9265000000	   0.8165498755
O	  31.7890000000	   9.5770600000	   1.2228600000
C	  34.1314000000	  10.6383000000	   1.0745200000
F	  34.2138000000	  10.4572000000	  -0.2328501245
F	  34.8133000000	  11.7040000000	   1.3970500000
F	  34.7200000000	   9.6247000000	   1.6259000000
N	  28.3817000000	   6.8943400000	   4.7727000000
S	  28.3298000000	   6.5435500000	   6.3273700000
O	  27.6868000000	   7.5647300000	   7.1759900000
O	  28.1587000000	   5.1765800000	   6.6458300000
C	  30.0770000000	   6.8723500000	   6.7442800000
F	  30.1621000000	   8.1710800000	   7.0474100000
F	  30.8906000000	   6.5676600000	   5.7933400000
F	  30.4502000000	   6.2074700000	   7.7695100000
S	  27.5787000000	   7.9876500000	   3.9733300000
O	  28.2989000000	   8.4801400000	   2.7817200000
O	  26.9548000000	   8.9284500000	   4.8604900000
C	  26.1777000000	   6.9390900000	   3.3390200000
F	  26.5830000000	   5.8197700000	   2.7698700000
F	  25.3672000000	   6.5302700000	   4.2849600000
F	  25.5029000000	   7.6352200000	   2.4839700000
