42

Li	   9.8686700000	  54.0880000000	  41.2916000000
O	  12.7994000000	  56.3633000000	  40.9274000000
O	  11.9213000000	  54.4860000000	  41.3807000000
C	  13.0998000000	  56.1407000000	  42.2698000000
C	  12.3991000000	  54.7636000000	  42.6263000000
C	  12.6737000000	  55.1190000000	  40.4131000000
H	  14.2167000000	  55.9771000000	  42.2578000000
H	  12.8172000000	  57.0311000000	  42.8931000000
H	  13.0381000000	  53.8785000000	  42.9140000000
H	  11.5728000000	  54.8655000000	  43.2925000000
H	  12.1695000000	  55.2294000000	  39.3785000000
H	  13.5830000000	  54.5902000000	  40.3504000000
O	   9.9971400000	  53.0516000000	  43.2706000000
O	  10.3794000000	  51.0851000000	  44.4482000000
C	   8.7902200000	  52.6596000000	  43.8373000000
C	   9.0063600000	  51.1438000000	  44.1622000000
C	  10.9375000000	  52.1320000000	  43.6713000000
H	   8.6501200000	  53.0696000000	  44.8044000000
H	   7.8864900000	  52.8366000000	  43.1563000000
H	   8.3811400000	  50.7140000000	  44.9319000000
H	   8.8682300000	  50.5689000000	  43.2728000000
H	  11.5159000000	  51.7898000000	  42.7849000000
H	  11.4972000000	  52.6359000000	  44.3809000000
O	   8.1583000000	  57.6900000000	  41.4828000000
O	   9.1245100000	  55.6654000000	  41.7081000000
C	   7.5671800000	  57.0973000000	  42.6290000000
C	   8.3912900000	  55.8214000000	  42.9291000000
C	   9.3379600000	  56.9881000000	  41.3481000000
H	   7.6700400000	  57.8164000000	  43.4599000000
H	   6.4795900000	  56.8957000000	  42.4769000000
H	   9.1059400000	  56.0047000000	  43.7674000000
H	   7.6973600000	  55.0346000000	  43.1171000000
H	   9.7753100000	  56.9730000000	  40.3908000000
H	  10.0523000000	  57.2905000000	  42.1078000000
S	   9.5540100000	  51.2221000000	  30.8765000000
S	   7.8476300000	  51.0812000000	  32.1051000000
S	   7.3899900000	  52.8551000000	  33.1191000000
S	   9.8126700000	  54.3258000000	  37.7447000000
S	  10.1138000000	  52.9822000000	  39.3335000000
S	   8.3132000000	  52.8209000000	  40.4542000000
S	   9.6191700000	  53.4156000000	  35.8129000000
S	   7.7042500000	  52.8360000000	  35.1929000000
