24

Li	  36.7311000000	  51.8412000000	  38.5920000000
N	  35.3787000000	  52.3138000000	  34.6248000000
S	  35.7909000000	  53.7577000000	  34.4295000000
O	  35.3323000000	  54.2636000000	  33.1509000000
O	  35.4386000000	  54.5667000000	  35.5960000000
C	  37.6244000000	  53.5699000000	  34.3746000000
F	  38.1499000000	  53.3780000000	  35.5392000000
F	  38.2041000000	  54.6495000000	  33.9156000000
F	  37.9795000000	  52.5086000000	  33.6170000000
S	  35.0661000000	  51.4916000000	  35.9455000000
O	  33.8031000000	  51.7719000000	  36.5000000000
O	  36.2108000000	  51.2887000000	  36.8187000000
C	  34.8457000000	  49.8258000000	  35.3292000000
F	  35.9615000000	  49.3252000000	  34.7874000000
F	  34.4688000000	  48.9460000000	  36.3118000000
F	  33.8402000000	  49.7462000000	  34.4379000000
S	  38.8189000000	  52.5189000000	  38.5341000000
S	  38.9530000000	  50.5786000000	  37.7508000000
S	  38.8103000000	  49.1004000000	  39.1344000000
S	  34.4152000000	  50.0411000000	  39.4219000000
S	  34.7627000000	  51.8971000000	  40.3848000000
S	  35.3913000000	  53.4050000000	  38.9267000000
S	  35.4864000000	  48.4437000000	  40.1329000000
S	  37.0768000000	  48.0115000000	  38.8036000000
