39

Li	  50.1571000000	  36.5305000000	  27.8783000000
O	  47.8420000000	  34.8904000000	  30.8925000000
O	  49.1522000000	  36.0939000000	  29.5018000000
C	  48.3378000000	  35.8427000000	  31.7528000000
C	  49.4051000000	  36.5381000000	  30.8402000000
C	  48.6487000000	  34.8301000000	  29.8159000000
H	  47.5382000000	  36.5333000000	  32.0320000000
H	  48.9115000000	  35.4411000000	  32.5583000000
H	  49.4003000000	  37.6810000000	  30.8031000000
H	  50.3857000000	  36.3190000000	  31.1957000000
H	  49.3868000000	  34.0251000000	  29.9943000000
H	  48.1348000000	  34.4146000000	  28.9086000000
O	  50.4384000000	  34.1937000000	  24.7134000000
O	  49.6138000000	  35.3384000000	  26.4448000000
C	  49.2007000000	  33.5866000000	  24.9082000000
C	  48.4776000000	  34.5787000000	  25.9276000000
C	  50.3688000000	  35.5000000000	  25.3338000000
H	  48.6312000000	  33.3558000000	  23.9391000000
H	  49.3662000000	  32.6599000000	  25.4031000000
H	  47.7746000000	  35.2110000000	  25.3954000000
H	  47.9320000000	  34.2241000000	  26.7610000000
H	  51.3363000000	  35.8751000000	  25.5399000000
H	  50.0128000000	  36.2702000000	  24.6234000000
S	  54.5545000000	  45.8869000000	  25.0823000000
S	  55.8875000000	  45.1970000000	  26.5599000000
S	  54.6868000000	  44.4041000000	  28.1709000000
S	  51.3643000000	  41.0674000000	  27.9914000000
S	  51.2335000000	  38.9065000000	  28.2101000000
S	  49.6253000000	  38.3772000000	  26.9036000000
S	  52.8670000000	  41.6057000000	  26.6943000000
S	  54.4939000000	  42.3570000000	  27.9354000000
S	  52.2263000000	  35.4261000000	  28.1703000000
S	  51.8551000000	  33.5413000000	  27.6702000000
S	  51.4424000000	  32.3348000000	  29.2577000000
S	  53.9128000000	  29.6151000000	  32.4665000000
S	  54.8915000000	  27.7435000000	  32.5995000000
S	  56.9253000000	  27.9397000000	  33.2995000000
S	  54.2557000000	  30.5550000000	  30.6196000000
S	  52.5133000000	  30.5560000000	  29.3851000000
