68

Li	  31.2354000000	  58.8422000000	  50.0210000000
O	  27.9962000000	  61.0133099611	  48.9004000000
O	  29.9533000000	  60.1584499611	  49.6160000000
C	  28.9390000000	  61.9969199611	  48.5410000000
C	  30.2706000000	  61.3690299611	  48.9161000000
C	  28.6809000000	  60.2929099611	  49.9971000000
H	  28.8606000000	  62.3126599611	  47.4767000000
H	  28.6552000000	  62.9498199611	  49.1897000000
H	  30.7703000000	  60.9462899611	  48.0639000000
H	  30.9857000000	  62.1116999611	  49.3242000000
H	  28.6075000000	  60.9793899611	  50.8616000000
H	  28.1897000000	  59.3278399611	  50.2088000000
O	  28.6693000000	  56.4540000000	  47.4380000000
O	  30.4707000000	  57.6092000000	  48.3371000000
C	  29.4910000000	  57.0062000000	  46.3641000000
C	  30.8283000000	  57.1951000000	  47.0524000000
C	  29.4887000000	  56.6749000000	  48.5601000000
H	  29.6244000000	  56.4716000000	  45.4461000000
H	  29.0714000000	  57.8995000000	  46.0909000000
H	  31.6285000000	  56.4443000000	  46.9861000000
H	  31.1500000000	  58.0633000000	  46.5317000000
H	  28.8821000000	  56.8540000000	  49.4577000000
H	  30.0139000000	  55.7423000000	  48.7525000000
N	  31.0456000000	  55.8980000000	  53.2010000000
S	  32.1909000000	  56.5233000000	  52.2913000000
O	  31.7225000000	  57.3434000000	  51.2158000000
O	  33.3832000000	  56.9908000000	  52.9561000000
C	  32.6110000000	  54.9380000000	  51.3562000000
F	  33.3593000000	  54.0850000000	  52.0230000000
F	  33.3048000000	  55.1192000000	  50.2167000000
F	  31.5253000000	  54.3478000000	  50.9371000000
S	  29.5635000000	  56.3700000000	  53.4130000000
O	  29.2636000000	  57.6323000000	  52.8146000000
O	  29.1909000000	  56.2049000000	  54.8206000000
C	  28.6003000000	  55.0789000000	  52.4584000000
F	  28.7596000000	  53.8411000000	  52.9377000000
F	  27.2368000000	  55.2113000000	  52.5411000000
F	  29.0039000000	  55.0007000000	  51.2414000000
N	  35.2373000000	  60.2457299611	  48.8632000000
S	  36.0238000000	  61.1574799611	  49.9231000000
O	  35.3823000000	  62.4340399611	  50.1789000000
O	  36.5917000000	  60.4251799611	  51.0001000000
C	  37.4931000000	  61.5704199611	  48.9196000000
F	  37.1648000000	  61.8651999611	  47.6998000000
F	  38.3359000000	  60.5339699611	  48.8209000000
F	  38.1605000000	  62.5570099611	  49.4168000000
S	  34.3043000000	  59.0763159611	  49.2796000000
O	  32.8951000000	  59.4059199611	  49.1161000000
O	  34.7249000000	  58.3081000000	  50.4273000000
C	  34.6944000000	  57.9507000000	  47.9191000000
F	  33.9267000000	  56.8771000000	  48.0175000000
F	  34.2181000000	  58.5175000000	  46.7757000000
F	  35.9894000000	  57.5488000000	  47.8429000000
N	  31.6966000000	  62.7595099611	  52.1872000000
S	  31.1431000000	  61.9177599611	  53.3449000000
O	  31.6037000000	  62.3056099611	  54.6339000000
O	  29.7714000000	  61.5619099611	  53.1439000000
C	  32.0392000000	  60.2729999611	  52.9960000000
F	  31.5868000000	  59.2459199611	  53.6600000000
F	  33.3337000000	  60.3714599611	  53.3405000000
F	  32.0268000000	  60.0042499611	  51.7361000000
S	  32.5783000000	  64.0902499611	  52.3178000000
O	  33.5709000000	  64.1599599611	  51.3263000000
O	  32.8458000000	  64.6513199611	  53.6505000000
C	  31.3868000000	  65.2533599611	  51.5454000000
F	  31.9249000000	  66.4077799611	  51.1102000000
F	  30.9045000000	  64.6980699611	  50.4627000000
F	  30.3176000000	  65.5272399611	  52.2780000000
