31

Li	  18.5668000000	  17.9260000000	  23.3391000000
O	  16.7246000000	  21.3924000000	  23.8478000000
O	  17.7622000000	  19.4226000000	  24.4820000000
C	  15.9123000000	  20.8767000000	  24.8878000000
C	  16.6658000000	  19.6062000000	  25.3500000000
C	  17.9138000000	  20.7810000000	  24.0091000000
H	  15.9001000000	  21.6302000000	  25.6871000000
H	  14.8920000000	  20.8590000000	  24.4812000000
H	  17.1023000000	  19.6704000000	  26.3203000000
H	  15.9976000000	  18.7286000000	  25.3556000000
H	  18.4752000000	  20.7792000000	  23.1293000000
H	  18.5778000000	  21.2669000000	  24.7373000000
O	  17.7354000000	  18.8450000000	  21.6130000000
O	  17.5355000000	  20.1547000000	  19.8249000000
C	  16.3413000000	  18.7624000000	  21.2893000000
C	  16.1727000000	  19.5391000000	  19.9701000000
C	  18.3781000000	  19.2921000000	  20.4988000000
H	  15.9370000000	  17.7511000000	  21.2327000000
H	  15.6493000000	  19.2574000000	  22.0387000000
H	  15.9911000000	  18.8205000000	  19.1577000000
H	  15.3888000000	  20.2121000000	  20.0291000000
H	  19.2669000000	  19.7870000000	  20.8314000000
H	  18.7667000000	  18.4959000000	  19.8818000000
S	  18.1581000000	  16.0525000000	  23.9844000000
S	  18.8326000000	  15.9078000000	  21.9896000000
S	  17.8268000000	  14.4665000000	  20.7160000000
S	  13.0455000000	  15.7171000000	  18.6654000000
S	  12.4774000000	  17.6732000000	  18.5883000000
S	  10.8379000000	  18.1301000000	  19.6759000000
S	  14.5452000000	  15.1283000000	  20.0910000000
S	  16.5429000000	  15.3623000000	  19.3728000000
