46

Li	  13.7883000000	   3.9226500000	  39.3454000000
O	  12.9459000000	   5.6396300000	  40.3560000000
O	  12.5485000000	   7.8577500000	  39.8526000000
C	  13.2694000000	   6.3194800000	  41.5499000000
C	  13.3465000000	   7.7773900000	  40.9870000000
C	  12.2285000000	   6.5295600000	  39.5408000000
H	  12.3990000000	   6.1462200000	  42.2117000000
H	  14.1598000000	   6.0548500000	  42.0740000000
H	  12.9654000000	   8.6587900000	  41.6431000000
H	  14.3479000000	   8.0163800000	  40.6457000000
H	  12.4242000000	   6.1587400000	  38.4569000000
H	  11.1675000000	   6.4330800000	  39.7511000000
O	  15.6763000000	   4.7703300000	  39.5302000000
O	  17.5315000000	   5.0573300000	  38.4070000000
C	  16.6957000000	   4.3892300000	  40.4418000000
C	  17.9883000000	   4.7553200000	  39.7189000000
C	  16.2947000000	   5.6168000000	  38.6439000000
H	  16.6260000000	   5.0067700000	  41.3457000000
H	  16.6109000000	   3.3443100000	  40.8270000000
H	  18.4758000000	   5.6821000000	  40.0542000000
H	  18.6975000000	   3.9177000000	  39.6411000000
H	  15.8449000000	   5.6189600000	  37.6103000000
H	  16.5485000000	   6.6133200000	  39.1382000000
N	  14.5424000000	   0.3318100389	  40.0173000000
S	  15.1025000000	   0.8193100389	  38.6846000000
O	  14.9985000000	   2.2404300000	  38.5666000000
O	  16.3652000000	   0.1701100389	  38.3137000000
C	  13.9290000000	   0.1630100389	  37.4395000000
F	  14.2524000000	  -1.1209899611	  37.0387000000
F	  14.0100000000	   0.9102440000	  36.3590000000
F	  12.6781000000	   0.0414100389	  37.9019000000
S	  13.6261000000	   1.0294100000	  41.0391000000
O	  12.4746000000	   0.1592100389	  41.2184000000
O	  13.5354000000	   2.4598500000	  40.8939000000
C	  14.5233000000	   0.8775100389	  42.6286000000
F	  13.9562000000	   1.5555000000	  43.6060000000
F	  14.6755000000	  -0.3703899611	  43.0162000000
F	  15.7754000000	   1.3328600000	  42.5605000000
S	   7.9555400000	   9.7841600000	  33.5325000000
S	   7.7246200000	   7.8905500000	  34.3553000000
S	   7.2834000000	   7.9502900000	  36.4158000000
S	   9.5392000000	   4.1391000000	  36.7364000000
S	  11.0737000000	   2.9795100000	  37.4747000000
S	  12.8932000000	   3.9063000000	  37.2607000000
S	   8.7080500000	   5.3939100000	  38.0974000000
S	   8.8938800000	   7.3830400000	  37.5677000000
