42

Li	  55.2575000000	   4.5634500000	  26.2360000000
O	  55.7401000000	   3.7716200000	  22.3940000000
O	  55.3279000000	   3.7838300000	  24.5807000000
C	  54.4442000000	   4.3183700000	  22.5729000000
C	  54.0886000000	   4.1403900000	  24.0836000000
C	  56.3124000000	   3.9146500000	  23.6332000000
H	  54.5050000000	   5.4190500000	  22.4956000000
H	  53.6896000000	   3.9373500000	  21.8794000000
H	  53.7432000000	   5.0717600000	  24.5068000000
H	  53.4561000000	   3.2624400000	  24.2558000000
H	  57.1563000000	   3.3054400000	  23.8389000000
H	  56.6359000000	   4.9457000000	  23.7039000000
N	  57.8893000000	   6.9615000000	  24.0632000000
S	  57.5161000000	   8.0182900000	  22.9871000000
O	  56.4428000000	   7.6190100000	  22.1333000000
O	  57.5485000000	   9.3262500000	  23.5343000000
C	  59.0426000000	   7.7779200000	  21.9651000000
F	  59.0589000000	   6.6346200000	  21.2927000000
F	  60.1620869749	   7.7911000000	  22.6680000000
F	  59.1919569749	   8.7559200000	  21.1115000000
S	  57.7424000000	   7.0325900000	  25.6191000000
O	  56.9653000000	   6.0126700000	  26.2483000000
O	  57.6627000000	   8.3649600000	  26.1111000000
C	  59.4363369749	   6.4843700000	  26.1199000000
F	  60.2718369749	   7.1458700000	  25.3963000000
F	  59.7681869749	   6.6785400000	  27.3980000000
F	  59.5691969749	   5.1640800000	  25.8130000000
N	  54.6941000000	   5.2869200000	  29.5435000000
S	  54.2224000000	   6.3543600000	  28.4858000000
O	  54.9228000000	   7.6617400000	  28.5226000000
O	  54.0466000000	   5.8144400000	  27.1385000000
C	  52.5742000000	   6.7232600000	  29.2092000000
F	  52.7184000000	   7.1489900000	  30.4851000000
F	  51.7190000000	   5.7232300000	  29.2490000000
F	  52.0758000000	   7.7427400000	  28.6068000000
S	  55.8132000000	   4.1613500000	  29.3139000000
O	  55.9527000000	   3.7043100000	  27.9572000000
O	  55.8584000000	   3.1386800000	  30.3316000000
C	  57.3515000000	   5.0670200000	  29.7034000000
F	  57.6246000000	   6.1872300000	  29.0055000000
F	  57.4462000000	   5.4090300000	  30.9232000000
F	  58.3854000000	   4.2195100000	  29.4744000000
