39

Li	  16.6784000000	  41.4877000000	  27.8029000000
N	  15.5098000000	  39.6811000000	  30.9222000000
S	  17.0689000000	  39.6629000000	  30.8324000000
O	  17.6685000000	  38.3454000000	  30.8739000000
O	  17.7883000000	  40.6178000000	  30.0030000000
C	  17.5089000000	  40.1659000000	  32.4814000000
F	  18.8117000000	  40.2559000000	  32.7656000000
F	  16.9710000000	  39.3818000000	  33.3504000000
F	  16.9734000000	  41.3736000000	  32.7353000000
S	  14.5697000000	  40.2447000000	  29.7568000000
O	  15.1803000000	  40.6785000000	  28.5676000000
O	  13.4547000000	  40.9613000000	  30.2897000000
C	  13.6905000000	  38.7712000000	  29.3024000000
F	  14.4872000000	  37.8120000000	  28.8574000000
F	  13.0915000000	  38.2076000000	  30.3361000000
F	  12.7909000000	  39.0901000000	  28.3699000000
N	  18.8786000000	  44.2773000000	  29.1539000000
S	  18.4921000000	  43.9980000000	  30.6824000000
O	  17.0608000000	  43.6620000000	  30.7875000000
O	  19.4259000000	  43.2468000000	  31.4122000000
C	  18.5397000000	  45.6576000000	  31.3465000000
F	  17.7963000000	  46.4202000000	  30.5779000000
F	  19.7990000000	  46.1496000000	  31.1417000000
F	  18.1311000000	  45.7377000000	  32.6197000000
S	  17.9227000000	  44.4790000000	  27.9317000000
O	  17.7922000000	  45.8918000000	  27.5958000000
O	  16.7702000000	  43.5992000000	  27.9216000000
C	  18.9663000000	  43.8636000000	  26.5423000000
F	  18.3278000000	  43.7218000000	  25.3661000000
F	  19.9555000000	  44.6302000000	  26.2130000000
F	  19.4118000000	  42.6247000000	  26.8075000000
S	  17.2193000000	  40.4174000000	  26.1113000000
S	  15.3798000000	  41.0102000000	  25.4504000000
S	  15.3164000000	  42.6233000000	  24.1182000000
S	  12.7453000000	  47.0265000000	  23.8323000000
S	  11.2190000000	  46.3943000000	  22.5974000000
S	   9.6711300000	  45.1816000000	  23.4914000000
S	  14.5733000000	  45.9435000000	  23.6499000000
S	  14.9234000000	  44.3928000000	  25.0597000000
