39

Li	  50.5903000000	  20.3801000000	  32.1352000000
O	  50.9003000000	  22.3334000000	  31.5549000000
O	  50.6928000000	  24.4650000000	  30.7643000000
C	  51.0807000000	  23.1558000000	  32.6938000000
C	  50.7595000000	  24.5502000000	  32.2216000000
C	  50.9278000000	  23.1173000000	  30.4299000000
H	  50.5528000000	  22.9214000000	  33.6002000000
H	  52.1557000000	  23.1578000000	  32.7108000000
H	  49.8432000000	  25.0279000000	  32.6403000000
H	  51.5626000000	  25.2690000000	  32.5815000000
H	  51.8689000000	  23.1044000000	  29.9726000000
H	  50.1723000000	  22.9049000000	  29.5921000000
O	  51.3742000000	  19.0517000000	  31.1862000000
O	  52.3179000000	  17.1402000000	  31.8720000000
C	  52.7927000000	  19.2398000000	  30.9255000000
C	  53.4168000000	  17.9548000000	  31.5334000000
C	  51.2577000000	  17.6407000000	  31.2160000000
H	  53.0069000000	  19.2337000000	  29.8412000000
H	  53.1770000000	  20.1284000000	  31.4851000000
H	  54.0570000000	  17.5383000000	  30.7922000000
H	  54.0978000000	  18.1836000000	  32.3623000000
H	  50.3695000000	  17.3183000000	  31.7768000000
H	  51.3191000000	  17.3158000000	  30.1675000000
S	  48.4989000000	  20.6232000000	  32.1193000000
S	  47.4626000000	  18.8527000000	  32.3754000000
S	  47.0736000000	  17.8536000000	  30.5814000000
S	  45.5651000000	  22.2717000000	  29.0593000000
S	  47.1239000000	  23.3292000000	  29.8507000000
S	  46.9236000000	  23.8382000000	  31.8871000000
S	  46.0829000000	  20.3337000000	  28.4507000000
S	  45.3806000000	  18.8158000000	  29.8027000000
S	  47.6625000000	  27.4036000000	  36.8340000000
S	  49.5892000000	  27.6291000000	  36.5470000000
S	  50.3359000000	  26.2298000000	  35.2531000000
S	  52.6664000000	  21.5137000000	  35.8810000000
S	  52.4813000000	  20.2174000000	  34.2887000000
S	  50.5531000000	  19.3124000000	  34.1157000000
S	  52.7631000000	  23.4746000000	  35.3027000000
S	  51.3324000000	  24.6562000000	  36.2591000000
