53

Li	  45.4993000000	  52.3201000000	   7.6678600000
O	  46.7668000000	  51.7360000000	   6.3112100000
O	  44.7870000000	  51.0059000000	   6.3828000000
C	  46.1053000000	  52.1610000000	   5.0894600000
C	  44.6930000000	  51.7238000000	   5.2104600000
C	  46.0799000000	  50.5712000000	   6.4145000000
H	  46.3252000000	  53.2201000000	   5.0177400000
H	  46.5601000000	  51.6200000000	   4.2739100000
H	  43.9328000000	  52.5140000000	   5.2246300000
H	  44.4569000000	  51.2025000000	   4.2796600000
H	  46.2787000000	  49.9321000000	   5.6169300000
H	  46.1587000000	  50.0834000000	   7.4196200000
O	  47.2160000000	  52.7840000000	   8.8468400000
O	  48.9774000000	  53.5662000000	  10.1216000000
C	  46.9594000000	  52.7955000000	  10.1988000000
C	  48.1615000000	  52.8977000000	  11.0242000000
C	  48.5860000000	  53.1288000000	   8.8594200000
H	  46.2842000000	  53.5787000000	  10.3767000000
H	  46.3813000000	  51.8935000000	  10.5952000000
H	  48.1048000000	  53.3391000000	  11.9812000000
H	  48.6265000000	  51.9585000000	  11.1909000000
H	  49.0775000000	  52.1800000000	   8.6505400000
H	  48.7859000000	  53.8987000000	   8.0697500000
N	  44.0077000000	  50.6342000000	  11.6186000000
S	  42.9846000000	  50.9604000000	  12.7566000000
O	  41.9030000000	  51.8554000000	  12.3126000000
O	  42.6767000000	  49.9193000000	  13.7070000000
C	  44.1180000000	  52.1820000000	  13.6906000000
F	  43.4130000000	  52.7307000000	  14.6249000000
F	  44.6335000000	  53.0465000000	  12.7946000000
F	  45.1045000000	  51.5325000000	  14.3047000000
S	  43.5561000000	  50.3175000000	  10.2158000000
O	  44.3380000000	  51.1024000000	   9.3036300000
O	  42.1171000000	  50.1125000000	  10.0355000000
C	  44.2552000000	  48.6182000000	   9.9992000000
F	  43.7059000000	  47.7511000000	  10.8416000000
F	  44.1250000000	  48.1498000000	   8.7658300000
F	  45.5442000000	  48.6448000000	  10.3757000000
N	  42.0145000000	  53.9207000000	   7.5640500000
S	  40.7488000000	  53.1073000000	   7.9010900000
O	  40.6597000000	  52.3350000000	   9.1741800000
O	  39.5847000000	  53.8034000000	   7.4736500000
C	  40.8695000000	  51.6978000000	   6.6377700000
F	  40.8099000000	  52.2177000000	   5.4115500000
F	  39.8975000000	  50.7763000000	   6.7966700000
F	  42.0616000000	  51.1312000000	   6.7099600000
S	  43.2207000000	  54.1519000000	   8.5691200000
O	  44.5027000000	  53.8046000000	   8.0015700000
O	  42.9625000000	  53.7045000000	   9.9177100000
C	  43.4298000000	  55.8986000000	   8.6767800000
F	  44.3263000000	  56.3796000000	   9.4878600000
F	  43.7002000000	  56.3291000000	   7.4995000000
F	  42.2721000000	  56.4260000000	   9.0155000000
