32

Li	   1.9057900000	  50.6483000000	  40.3856000000
N	   4.5091200000	  47.4988000000	  39.7764000000
S	   3.1916500000	  47.5067000000	  40.5454000000
O	   2.6088700000	  48.8061000000	  40.4816000000
O	   2.3188600000	  46.4218000000	  40.2372000000
C	   3.6179900000	  47.4474000000	  42.2547000000
F	   2.5701200000	  47.2755000000	  43.0613000000
F	   4.3040700000	  48.4499000000	  42.7186000000
F	   4.3864400000	  46.4129000000	  42.4471000000
S	   4.7160500000	  47.1262000000	  38.2703000000
O	   5.5646100000	  48.0249000000	  37.4998000000
O	   3.6254400000	  46.5825000000	  37.5123000000
C	   5.8702100000	  45.7109000000	  38.6107000000
F	   6.3595000000	  45.1352000000	  37.5308000000
F	   6.8731600000	  46.0454000000	  39.3668000000
F	   5.1781500000	  44.7304000000	  39.2497000000
S	  -1.2512869749	  57.6908000000	  45.4200000000
S	  -1.1635869749	  58.2434000000	  43.3179000000
S	  -2.6637869749	  57.2398000000	  42.1168000000
S	   0.3042130251	  53.7944000000	  39.6075000000
S	   0.0758130251	  52.2812000000	  38.2576000000
S	   0.1512130251	  50.4247000000	  39.2396000000
S	  -1.5693869749	  54.2728000000	  40.5869000000
S	  -1.8464869749	  56.3289000000	  40.3391000000
S	   6.5337400000	  49.3979000000	  34.6400000000
S	   4.5381800000	  49.7168000000	  34.8875000000
S	   3.9594700000	  51.2596000000	  36.2710000000
S	   4.6089000000	  52.2303000000	  40.8085000000
S	   3.9112000000	  51.3235000000	  42.5740000000
S	   1.8061800000	  51.1118000000	  42.3135000000
S	   5.1681900000	  50.9187000000	  39.3746000000
S	   3.5041000000	  50.5476000000	  38.1442000000
