53

Li	  38.3997000000	   8.9926900000	  54.9620000000
O	  38.7171000000	   9.3740000000	  50.7735000000
O	  38.6986000000	   8.7570500000	  52.9291000000
C	  38.2536000000	   8.0253100000	  50.9057000000
C	  37.7536000000	   7.8754700000	  52.3345000000
C	  38.7075000000	   9.8485400000	  52.0843000000
H	  37.4746000000	   7.6586100000	  50.2388000000
H	  39.1197000000	   7.3673800000	  50.8306000000
H	  36.6999000000	   8.3344000000	  52.4013000000
H	  37.8544000000	   6.8969700000	  52.6958000000
H	  39.6652000000	  10.3778000000	  52.2793000000
H	  37.7882000000	  10.4371000000	  52.3057000000
O	  42.2012000000	   8.9432200000	  55.6485000000
O	  40.3255000000	   9.9508800000	  54.8642000000
C	  41.9076000000	  10.0054000000	  56.5689000000
C	  40.6351000000	  10.6670000000	  56.0364000000
C	  41.4536000000	   9.2674500000	  54.4724000000
H	  41.7222000000	   9.6490200000	  57.6234000000
H	  42.7429000000	  10.7446000000	  56.5296000000
H	  39.9246000000	  10.7550000000	  56.8448000000
H	  40.9177000000	  11.6503000000	  55.6039000000
H	  42.0468000000	  10.0491000000	  53.8657000000
H	  41.2336000000	   8.4278600000	  53.7096000000
N	  36.4288000000	  12.2868000000	  56.6217000000
S	  36.9822000000	  12.1092000000	  55.1751000000
O	  37.7908000000	  13.1566000000	  54.6529000000
O	  37.4181000000	  10.7699000000	  54.9434000000
C	  35.3373000000	  12.2666000000	  54.3073000000
F	  34.5557000000	  11.3807000000	  54.7455000000
F	  35.4655000000	  12.0530000000	  53.0058000000
F	  34.8797000000	  13.5736000000	  54.4617000000
S	  36.1613000000	  11.1942000000	  57.7195000000
O	  37.1101000000	  10.1099000000	  57.7643000000
O	  34.7647000000	  10.9333000000	  57.9661000000
C	  36.7661000000	  12.0135000000	  59.2204401245
F	  36.5527000000	  11.2233000000	  60.2881901245
F	  38.0632000000	  12.2078000000	  59.2548801245
F	  36.2360000000	  13.2182000000	  59.3179701245
N	  34.2211000000	   7.7373300000	  54.5938000000
S	  35.4610000000	   7.6150400000	  55.5550000000
O	  36.6496000000	   8.2534700000	  55.0251000000
O	  35.0477000000	   7.9851100000	  56.8937000000
C	  35.7892000000	   5.8413000000	  55.5349000000
F	  36.0889000000	   5.3064600000	  54.3851000000
F	  34.8637000000	   5.2087700000	  56.1304000000
F	  36.8444000000	   5.5372600000	  56.1841000000
S	  32.8418000000	   8.4143100000	  54.8500000000
O	  32.8401000000	   9.5700400000	  55.7749000000
O	  31.7930000000	   7.5018700000	  55.0519000000
C	  32.4821000000	   9.1987900000	  53.2223000000
F	  31.3896000000	   9.9911700000	  53.2432000000
F	  33.4955000000	   9.9752300000	  52.7926000000
F	  32.2771000000	   8.3245600000	  52.2385000000
