28

Li	  12.8303000000	   2.5023400000	  31.4658000000
O	  14.5018000000	   2.5182500000	  30.1525000000
O	  15.7615000000	   2.0848400000	  28.2120000000
C	  15.8628000000	   2.2305900000	  30.4341000000
C	  16.5255000000	   1.5109700000	  29.2319000000
C	  14.4584000000	   2.1712200000	  28.8113000000
H	  16.4806000000	   3.1744000000	  30.6132000000
H	  15.9638000000	   1.6853100000	  31.3915000000
H	  17.6013000000	   1.5633700000	  29.2135000000
H	  16.3183000000	   0.4643100389	  29.2733000000
H	  13.9907000000	   1.2285500000	  28.6804000000
H	  13.8719000000	   2.9154000000	  28.2858000000
S	  16.0714000000	  -9.5361899611	  31.8135000000
S	  17.2542000000	  -8.0280899611	  30.9055000000
S	  16.1804000000	  -6.6039899611	  29.6998000000
S	  14.9355000000	  -1.7577899611	  30.5724000000
S	  13.9528000000	  -0.6750899611	  32.0605000000
S	  12.2895000000	   0.3472100389	  31.0875000000
S	  15.6566000000	  -3.5423899611	  31.3287000000
S	  16.8225000000	  -4.5484899611	  29.7734000000
S	  14.8747000000	   2.2970400000	  21.9135000000
S	  13.5096000000	   3.6467500000	  22.9783000000
S	  13.7013000000	   3.6502200000	  25.0257000000
S	  11.1071000000	   3.6617800000	  29.3566000000
S	  11.4193000000	   4.5632500000	  31.1929000000
S	  11.5680000000	   3.2826100000	  32.7948000000
S	  11.6785000000	   4.8148000000	  27.6420000000
S	  11.8824000000	   3.5672000000	  25.9991000000
