34

Li	  12.8616000000	  37.3059000000	  12.2052000000
O	  12.8188000000	  40.8174000000	  11.6043000000
O	  12.9247000000	  38.9775000000	  12.5997000000
C	  11.6533000000	  40.7829000000	  12.3158000000
C	  11.5783000000	  39.3573000000	  12.8081000000
C	  13.7257000000	  40.0617000000	  12.2363000000
H	  11.7579000000	  41.3913000000	  13.2330000000
H	  10.7291000000	  41.0221000000	  11.7771000000
H	  11.2479000000	  39.3576000000	  13.7976000000
H	  11.0310000000	  38.7553000000	  12.0730000000
H	  14.5672000000	  39.8894000000	  11.5913000000
H	  13.9620000000	  40.7429000000	  13.1016000000
O	  12.7781000000	  35.9423000000	   8.2760600000
O	  12.6314000000	  36.8743000000	  10.3331000000
C	  11.4147000000	  36.2014000000	   8.4869500000
C	  11.4497000000	  37.1736000000	   9.6495700000
C	  13.4598000000	  36.1612000000	   9.4692200000
H	  11.0327000000	  36.5506000000	   7.5478200000
H	  10.9168000000	  35.3075000000	   8.7534500000
H	  11.4342000000	  38.2537000000	   9.2802200000
H	  10.5532000000	  37.0986000000	  10.2199000000
H	  13.9864000000	  35.3519000000	   9.8660000000
H	  14.3109000000	  36.7116000000	   9.1230100000
O	  11.5586000000	  33.8177000000	  13.2179000000
O	  11.4511000000	  36.0028000000	  12.6480000000
C	  11.7916000000	  34.6571000000	  14.3774000000
C	  11.1263000000	  35.8762000000	  13.9915000000
C	  11.4021000000	  34.6791000000	  12.1500000000
H	  11.3843000000	  34.2863000000	  15.3538000000
H	  12.8625000000	  34.8798000000	  14.4342000000
H	  10.0019000000	  35.9781000000	  14.0738000000
H	  11.4846000000	  36.7582000000	  14.5184000000
H	  12.0928000000	  34.4216000000	  11.3795000000
H	  10.4332000000	  34.5299000000	  11.6907000000
