57

Li	  49.2343000000	  46.3231000000	  11.9075000000
O	  50.6615000000	  47.3499000000	  11.9992000000
O	  51.7230000000	  49.2444000000	  12.5426000000
C	  50.6719000000	  48.2164000000	  10.8907000000
C	  51.8448000000	  49.1329000000	  11.1492000000
C	  51.4319000000	  48.0303000000	  12.9928000000
H	  50.7835000000	  47.6810000000	  10.0050000000
H	  49.6826000000	  48.7357000000	  10.8148000000
H	  52.8282000000	  48.7063000000	  10.9242000000
H	  51.6590000000	  50.1332000000	  10.6361000000
H	  51.0476000000	  48.0992000000	  13.9963000000
H	  52.3558000000	  47.4666000000	  13.0779000000
N	  51.3041000000	  43.7593000000	  10.1337000000
S	  52.3428000000	  44.7275000000	  10.7144000000
O	  52.7426000000	  45.7081000000	   9.7538800000
O	  52.0015000000	  44.9334000000	  12.0305000000
C	  53.7517000000	  43.5720000000	  10.8949000000
F	  54.0476000000	  42.9892000000	   9.7521000000
F	  53.4333000000	  42.5705000000	  11.6605000000
F	  54.8654000000	  44.0584000000	  11.3921000000
S	  49.7694000000	  43.7531000000	  10.3111000000
O	  49.1973000000	  45.0626000000	  10.6275000000
O	  49.1716000000	  42.6158000000	  11.0102000000
C	  49.2555000000	  43.4177000000	   8.5984200000
F	  47.9195000000	  43.2018000000	   8.6038500000
F	  49.4568000000	  44.4002000000	   7.7212300000
F	  49.8512000000	  42.3740000000	   8.1164000000
N	  48.9641000000	  45.9028000000	  16.0472000000
S	  48.3917000000	  45.0784000000	  14.8061000000
O	  46.9712000000	  44.9589000000	  14.9338000000
O	  48.9907000000	  45.4833000000	  13.5451000000
C	  49.0918000000	  43.3851000000	  15.0900000000
F	  50.3977000000	  43.4606000000	  15.2512000000
F	  48.8467000000	  42.6372000000	  14.0272000000
F	  48.5813000000	  42.8357000000	  16.1833000000
S	  48.1405000000	  46.7685000000	  17.0428000000
O	  48.3145000000	  46.4323000000	  18.4154000000
O	  46.8363000000	  46.9696000000	  16.6003000000
C	  48.9262000000	  48.4569000000	  16.9672000000
F	  49.1849000000	  48.8374000000	  15.7334000000
F	  48.1922000000	  49.4063000000	  17.5427000000
F	  50.1721000000	  48.4195000000	  17.4719000000
N	  45.3279000000	  48.0338000000	  10.9093000000
S	  45.1132000000	  47.0174000000	   9.7744800000
O	  45.2187000000	  47.7201000000	   8.5299800000
O	  45.9228000000	  45.8465000000	   9.9303400000
C	  43.3711000000	  46.4628000000	  10.0756000000
F	  43.0539000000	  45.5107000000	   9.2410600000
F	  42.5745000000	  47.5067000000	   9.8142800000
F	  43.1903000000	  46.0075000000	  11.2983000000
S	  46.5238000000	  48.1111000000	  11.9405000000
O	  47.6318000000	  47.2571000000	  11.6058000000
O	  46.0028000000	  48.0512000000	  13.2957000000
C	  47.0413000000	  49.8636000000	  11.7828000000
F	  47.6508000000	  49.9473000000	  10.5701000000
F	  46.0090000000	  50.6500000000	  11.7240000000
F	  47.9086000000	  50.2790000000	  12.6582000000
