35

Li	  42.7068000000	  43.2687000000	  18.4314000000
O	  40.9277000000	  43.2616000000	  19.0689000000
O	  39.4041000000	  43.0794000000	  17.4290000000
C	  40.3031000000	  41.9922000000	  19.3120000000
C	  39.3130000000	  41.8957000000	  18.1990000000
C	  39.9803000000	  43.9537000000	  18.3247000000
H	  40.9847000000	  41.1094000000	  19.1528000000
H	  39.7664000000	  41.9724000000	  20.2516000000
H	  39.5392000000	  40.9670000000	  17.6592000000
H	  38.2863000000	  41.8832000000	  18.5781000000
H	  39.2742000000	  44.5107000000	  18.9302000000
H	  40.6360000000	  44.6342000000	  17.7359000000
N	  43.6109000000	  47.5434000000	  18.7272000000
S	  43.4120000000	  46.2414000000	  19.5849000000
O	  43.1115000000	  45.0414000000	  18.8181000000
O	  44.2084000000	  46.0972000000	  20.7799000000
C	  41.7707000000	  46.5662000000	  20.3129000000
F	  40.7470000000	  46.5019000000	  19.4082000000
F	  41.8072000000	  47.8090000000	  20.7208000000
F	  41.4369000000	  45.8031000000	  21.2931000000
S	  44.9012000000	  48.4024000000	  18.5094000000
O	  44.9592000000	  48.9960000000	  17.2095000000
O	  46.1509000000	  47.8370000000	  19.0037000000
C	  44.6003000000	  49.7997000000	  19.7215000000
F	  44.3808000000	  49.5068000000	  21.0594000000
F	  45.6036000000	  50.6996000000	  19.6458000000
F	  43.4747000000	  50.3585000000	  19.3203000000
S	  43.0236000000	  43.6601000000	  16.0555000000
S	  42.0191000000	  41.8116000000	  16.4057000000
S	  43.1280000000	  40.0756000000	  16.0231000000
S	  42.4982000000	  38.9886000000	  20.1415000000
S	  44.0373000000	  40.4224000000	  20.6625000000
S	  44.1563000000	  42.1603000000	  19.6166000000
S	  42.9758000000	  37.6072000000	  18.6189000000
S	  42.1868000000	  38.3698000000	  16.7999000000
