49

Li	  59.0169000000	  19.8593000000	  27.6244000000
O	  59.9345469749	  21.6233000000	  27.6525000000
O	  60.8956069749	  23.3864000000	  28.7862000000
C	  61.2593069749	  21.7264000000	  27.2744000000
C	  61.8947769749	  22.4241000000	  28.4992000000
C	  59.7317569749	  22.8347000000	  28.4098000000
H	  61.6853369749	  20.7161000000	  27.0300000000
H	  61.2832669749	  22.4314000000	  26.4901000000
H	  61.9088869749	  21.6349000000	  29.2463000000
H	  62.9823169749	  22.7992000000	  28.2939000000
H	  59.2655269749	  23.5480000000	  27.7683000000
H	  59.0829169749	  22.6092000000	  29.2620000000
O	  58.0095000000	  19.8958000000	  25.9533000000
O	  56.6106000000	  19.4405000000	  24.1979000000
C	  57.4180000000	  21.0785000000	  25.5319000000
C	  56.1551000000	  20.6159000000	  24.8554000000
C	  57.6816000000	  18.9931000000	  24.9022000000
H	  57.1920000000	  21.8340000000	  26.2965000000
H	  58.0646000000	  21.5663000000	  24.7613000000
H	  55.5568000000	  20.1880000000	  25.6045000000
H	  55.5544000000	  21.3256000000	  24.1987000000
H	  58.5761000000	  18.9345000000	  24.2775000000
H	  57.4462000000	  18.0129000000	  25.2102000000
O	  55.9094000000	  19.7074000000	  28.9443000000
O	  58.0899000000	  19.6908000000	  29.1405000000
C	  56.2154000000	  18.3963000000	  29.4271000000
C	  57.6903000000	  18.4106000000	  29.7695000000
C	  56.9956000000	  20.5030000000	  29.3531000000
H	  55.6142000000	  18.1210000000	  30.2791000000
H	  55.9673000000	  17.6785000000	  28.6742000000
H	  58.0385000000	  18.3473000000	  30.8142000000
H	  58.2442000000	  17.6282000000	  29.2232000000
H	  57.0350000000	  21.3808000000	  28.6527000000
H	  56.8385000000	  20.8914000000	  30.3581000000
N	  61.2761469749	  18.5013000000	  24.9335000000
S	  61.4081269749	  18.0752000000	  26.4118000000
O	  62.6951369749	  18.2187000000	  27.0242000000
O	  60.2570769749	  18.4362000000	  27.2076000000
C	  61.2528169749	  16.2894000000	  26.2135000000
F	  61.1935169749	  15.5997000000	  27.3752000000
F	  62.2993369749	  15.8076000000	  25.5771000000
F	  60.1181069749	  15.9174000000	  25.6349000000
S	  62.1917569749	  19.4359000000	  24.0179000000
O	  63.0342069749	  18.6334000000	  23.1043000000
O	  62.7284369749	  20.6488000000	  24.6276000000
C	  60.9019569749	  20.0588000000	  22.9322000000
F	  60.1733169749	  19.1625000000	  22.2678000000
F	  60.1233469749	  20.7882000000	  23.6709000000
F	  61.3602069749	  20.9340000000	  22.0327000000
