28

Li	  50.1393000000	  25.1235000000	  34.6628000000
O	  48.1709000000	  27.4628000000	  37.3880000000
O	  49.2969000000	  26.0705000000	  35.9493000000
C	  49.5775000000	  27.5499000000	  37.6521000000
C	  50.0525000000	  26.1684000000	  37.1037000000
C	  48.1565000000	  26.7621000000	  36.1532000000
H	  50.0880000000	  28.2818000000	  36.9841000000
H	  49.7054000000	  27.7660000000	  38.7633000000
H	  51.0831000000	  26.0623000000	  36.9766000000
H	  49.6747000000	  25.4256000000	  37.8279000000
H	  47.2689000000	  26.2074000000	  36.0898000000
H	  48.2051000000	  27.4299000000	  35.2574000000
S	  50.4709000000	  20.3405000000	  32.6725000000
S	  48.6260000000	  19.5934000000	  31.8693000000
S	  47.9168000000	  20.5524000000	  30.1433000000
S	  46.4027000000	  24.3662000000	  32.4954000000
S	  48.4051000000	  24.8775000000	  32.9152000000
S	  49.3166000000	  23.3092000000	  33.9324000000
S	  46.2989000000	  23.6199000000	  30.4852000000
S	  46.0713000000	  21.5566000000	  30.5068000000
S	  51.8326000000	  35.7847000000	  29.1700000000
S	  52.4239000000	  34.8737000000	  30.8735000000
S	  50.8776000000	  33.7997000000	  31.7445000000
S	  51.0414000000	  28.8544000000	  34.1233000000
S	  52.6299000000	  27.5270000000	  34.6432000000
S	  52.1651000000	  25.5426000000	  34.1826000000
S	  51.6077000000	  30.3506000000	  32.6281000000
S	  51.6038000000	  32.3963000000	  33.2637000000
