43

Li	  25.4413000000	   1.7013400000	  24.1818000000
O	  26.8206000000	   3.7778800000	  27.5322000000
O	  25.7407000000	   2.5234200000	  25.9482000000
C	  26.0493000000	   2.7678800000	  28.2640000000
C	  25.8121000000	   1.7078900000	  27.1250000000
C	  26.1136000000	   3.7978400000	  26.3615000000
H	  26.5237000000	   2.3004400000	  29.1195000000
H	  25.0857000000	   3.1360000000	  28.6272000000
H	  26.6168000000	   1.0159100000	  26.9839000000
H	  24.9128000000	   1.1311000000	  27.3528000000
H	  25.2186000000	   4.4233300000	  26.5560000000
H	  26.7442000000	   4.2598700000	  25.5447000000
N	  23.5567000000	   3.6218300000	  20.8510000000
S	  24.9142000000	   4.1976200000	  21.4533000000
O	  24.9463000000	   5.6184900000	  21.6126000000
O	  25.4856000000	   3.4236500000	  22.5585000000
C	  26.0446000000	   3.8599500000	  20.0418000000
F	  27.2900000000	   3.7433500000	  20.4815000000
F	  25.9678000000	   4.8189700000	  19.1071000000
F	  25.8042000000	   2.7451600000	  19.4074000000
S	  22.0781000000	   4.0863200000	  20.9333000000
O	  21.9698000000	   5.5319500000	  21.1669000000
O	  21.1943000000	   3.2319700000	  21.6600000000
C	  21.4241000000	   3.9012900000	  19.2024000000
F	  22.2927000000	   4.3645100000	  18.3409000000
F	  21.2908000000	   2.6369500000	  18.8166000000
F	  20.2797000000	   4.4770900000	  19.0153000000
S	  19.6242000000	  11.1713000000	  29.9840000000
S	  19.0657000000	   9.0412100000	  29.6481000000
S	  19.3436000000	   8.5659900000	  27.7239000000
S	  22.4432000000	   4.2478000000	  26.5921000000
S	  22.9304000000	   3.6685100000	  24.4975000000
S	  23.1336000000	   1.6592300000	  24.0711000000
S	  20.6901000000	   5.3990400000	  26.7439000000
S	  21.0350000000	   7.3595100000	  27.2794000000
S	  25.1997000000	   1.8646200000	  12.6051000000
S	  25.3105000000	   0.2961100389	  13.9745000000
S	  24.8180000000	   1.0536400000	  15.8474000000
S	  24.5222000000	  -0.6647899611	  20.9363000000
S	  25.8697000000	   0.3290100389	  22.1631000000
S	  26.0782000000	  -0.3912899611	  24.1830000000
S	  24.1349000000	   0.3695100389	  19.1219000000
S	  25.2756000000	  -0.1511899611	  17.5026000000
