43

Li	   1.3996700000	  53.0517000000	  52.3125000000
O	  -0.1682110448	  56.4785000000	  53.5741000000
O	   1.1247000000	  54.7354000000	  53.1765000000
C	   0.6470889552	  56.3895000000	  54.7177000000
C	   1.6541800000	  55.2383000000	  54.4775000000
C	   0.5064889552	  55.7912000000	  52.5034000000
H	   1.2181400000	  57.3205000000	  54.6989000000
H	   0.0756889552	  56.3263000000	  55.6885000000
H	   2.6774300000	  55.7001000000	  54.4435000000
H	   1.6178300000	  54.4564000000	  55.2763000000
H	  -0.2016110448	  55.2888000000	  51.8321000000
H	   1.1291500000	  56.4210000000	  51.9659000000
O	   2.4354200000	  53.8731000000	  48.5959000000
O	   1.5237200000	  53.6776000000	  50.6049000000
C	   1.1831000000	  53.3062000000	  48.3462000000
C	   0.4580889552	  53.5134000000	  49.6557000000
C	   2.7385900000	  53.6045000000	  49.9186000000
H	   0.6637889552	  53.6807000000	  47.4074000000
H	   1.5133200000	  52.2764000000	  48.1758000000
H	  -0.0582110448	  54.4574000000	  49.6367000000
H	  -0.2003110448	  52.7191000000	  50.0225000000
H	   3.0469400000	  52.5364000000	  49.8990000000
H	   3.5088100000	  54.3218000000	  50.2454000000
S	  -1.2972110448	  51.2007000000	  53.1145000000
O	  -0.1375110448	  52.0502000000	  52.7174000000
O	  -2.4977110448	  51.1672000000	  52.3664000000
C	  -1.6860110448	  51.5825000000	  54.8646000000
C	  -0.6736110448	  49.5134000000	  53.1360000000
C	  -2.4695110448	  52.9179000000	  55.1088000000
C	  -2.3440110448	  50.3851000000	  55.5953000000
C	  -1.6323110448	  48.2612000000	  53.0345000000
H	  -0.7585110448	  51.6695000000	  55.3977000000
H	   0.0180889552	  49.4691000000	  52.3582000000
H	  -0.0697110448	  49.4141000000	  53.9655000000
H	  -1.7557110448	  53.7462000000	  55.0364000000
H	  -3.1060110448	  53.2083000000	  54.2500000000
H	  -3.0294110448	  53.0329000000	  56.0731000000
H	  -3.1843110448	  50.0202000000	  55.0397000000
H	  -1.8264110448	  49.4583000000	  55.6490000000
H	  -2.7038110448	  50.6776000000	  56.6428000000
H	  -2.6524110448	  48.4913000000	  53.3482000000
H	  -1.7937110448	  47.9854000000	  52.0478000000
H	  -1.2066110448	  47.4605000000	  53.6750000000
