49

Li	   1.2047500000	  18.4448000000	   6.7408100000
S	  -0.1142110448	  21.3537000000	   8.1493900000
O	   0.4556889552	  20.1702000000	   7.5189700000
O	  -1.3935110448	  21.1373000000	   8.8870700000
C	  -0.4153110448	  22.5835000000	   6.8709000000
C	   1.1526200000	  22.1132000000	   9.3002500000
C	  -1.5378110448	  22.0676000000	   6.0414000000
C	  -0.7197110448	  24.0264000000	   7.4709100000
C	   2.5661900000	  22.1445000000	   8.7576200000
H	   0.5599889552	  22.6264000000	   6.3171800000
H	   0.7264889552	  23.1385000000	   9.5466300000
H	   1.1644900000	  21.4785000000	  10.1901000000
H	  -1.3098110448	  21.0528000000	   5.5636700000
H	  -2.4659110448	  22.0936000000	   6.5718600000
H	  -1.6693110448	  22.7602000000	   5.2076300000
H	  -1.2160110448	  23.7699000000	   8.4333800000
H	   0.2849889552	  24.5054000000	   7.6115100000
H	  -1.3535110448	  24.6451000000	   6.8599000000
H	   3.3057300000	  22.4017000000	   9.5061800000
H	   2.7022200000	  21.1031000000	   8.4426700000
H	   2.5936100000	  22.6817000000	   7.8763000000
S	  -0.8556110448	  17.9349000000	   4.2949800000
O	   0.3206889552	  18.3225000000	   5.0579900000
O	  -2.1470110448	  18.0213000000	   4.8903500000
C	  -0.5704110448	  16.2971000000	   3.5714900000
C	  -1.0259110448	  18.9606000000	   2.8341000000
C	   0.8971620000	  16.1091000000	   3.1019800000
C	  -0.9380110448	  15.2452000000	   4.6373400000
C	  -2.3634110448	  18.7443000000	   2.0488100000
H	  -1.2189110448	  16.2250000000	   2.7586000000
H	  -0.9969110448	  20.0280000000	   3.1102000000
H	  -0.1339110448	  18.7010000000	   2.3143100000
H	   1.6527400000	  16.4056000000	   3.8795300000
H	   1.1989800000	  15.1456000000	   2.6944800000
H	   1.1571800000	  16.6894000000	   2.2613000000
H	  -0.1831110448	  15.2197000000	   5.3799700000
H	  -1.9670110448	  15.3392000000	   4.9979900000
H	  -0.6605110448	  14.2666000000	   4.2191600000
H	  -2.4453110448	  19.4901000000	   1.2817400000
H	  -2.4142110448	  17.7214000000	   1.6222500000
H	  -3.2289110448	  18.8296000000	   2.6167800000
S	   2.0894300000	  16.5812000000	   7.2292400000
S	   2.4866700000	  17.9359000000	   8.8569200000
S	   4.4190800000	  17.5684000000	   9.5809700000
S	   7.6228900000	  20.6950000000	  11.1005000000
S	   7.5076900000	  21.4995000000	  12.9823000000
S	   6.6149500000	  20.3165000000	  14.4454000000
S	   5.8907600000	  20.7435000000	   9.9066400000
S	   5.7942300000	  18.9980000000	   8.6438800000
