48

Li	  24.9608000000	  35.8469000000	  28.5059000000
O	  27.2530000000	  32.6465000000	  28.5676000000
O	  26.6362000000	  34.6617000000	  29.0054000000
C	  28.3489000000	  33.4639000000	  28.0904000000
C	  27.9206000000	  34.8360000000	  28.7335000000
C	  26.4975000000	  33.3610000000	  29.4135000000
H	  29.3190000000	  33.2104000000	  28.5232000000
H	  28.4692000000	  33.4348000000	  27.0002000000
H	  28.5560000000	  35.0646000000	  29.6411000000
H	  28.1118000000	  35.5313000000	  27.9038000000
H	  25.5001000000	  32.9630000000	  29.5683000000
H	  26.9910000000	  33.2790000000	  30.4202000000
S	  25.5160000000	  34.7907000000	  25.3669000000
O	  25.0445000000	  35.1016000000	  26.7084000000
O	  26.8726000000	  35.0716000000	  24.9168000000
C	  24.4355000000	  35.7145000000	  24.1766000000
C	  25.1359000000	  33.0596000000	  24.9756000000
C	  23.0504000000	  35.1388000000	  24.2585000000
C	  24.4750000000	  37.2156000000	  24.5308000000
C	  25.8735000000	  32.0778000000	  25.8067000000
H	  24.7142000000	  35.6627000000	  23.0833000000
H	  24.0884000000	  32.8487000000	  25.0915000000
H	  25.3967000000	  33.0578000000	  23.8621000000
H	  22.2857000000	  35.7298000000	  23.8912000000
H	  22.8920000000	  34.2247000000	  23.7424000000
H	  22.7212000000	  34.9796000000	  25.3281000000
H	  24.0842000000	  37.9154000000	  23.8169000000
H	  23.9331000000	  37.3475000000	  25.4920000000
H	  25.5211000000	  37.3669000000	  24.7430000000
H	  25.6248000000	  31.0122000000	  25.4632000000
H	  26.9807000000	  32.3615000000	  25.8112000000
H	  25.4619000000	  32.1467000000	  26.8327000000
S	  25.5516000000	  38.0698000000	  28.3014000000
S	  27.1037000000	  39.2403000000	  28.9406000000
S	  29.1001000000	  38.4122000000	  29.1204000000
S	  30.8798000000	  34.5285000000	  31.7805000000
S	  32.2753000000	  33.2664000000	  30.7473000000
S	  31.5801000000	  31.7535000000	  29.4758000000
S	  31.1888000000	  36.6332000000	  31.4372000000
S	  29.3621000000	  37.6624000000	  31.1297000000
S	  17.1741000000	  37.2840000000	  37.7416000000
S	  18.5427000000	  37.0422000000	  36.1043000000
S	  18.1627000000	  35.3128000000	  35.0354000000
S	  21.6620000000	  33.4160000000	  32.0760000000
S	  22.6728000000	  33.5805000000	  30.2708000000
S	  23.4321000000	  35.5058000000	  29.8802000000
S	  19.5658000000	  33.7271000000	  32.1346000000
S	  18.9134000000	  35.4793000000	  33.0717000000
