54

Li	  38.8161000000	  58.8584000000	  27.8993000000
O	  40.4108000000	  58.5999000000	  28.9496000000
O	  42.0788000000	  57.8457000000	  30.4174000000
C	  40.9321000000	  59.7158759276	  29.6822000000
C	  42.1147000000	  59.2121459276	  30.4867000000
C	  41.4504000000	  57.6931000000	  29.1825000000
H	  41.2041000000	  60.5953759276	  28.9807000000
H	  40.1669000000	  59.9961659276	  30.3406000000
H	  43.0599000000	  59.5195859276	  30.1435000000
H	  42.0220000000	  59.3126409276	  31.5615000000
H	  41.0045000000	  56.7507000000	  29.0781000000
H	  42.2088000000	  57.6913000000	  28.3922000000
O	  40.9611000000	  59.5141059276	  24.4852000000
O	  39.7156000000	  59.2682219276	  26.3382000000
C	  39.8976000000	  60.3989259276	  24.2908000000
C	  38.9383000000	  59.6793959276	  25.2563000000
C	  40.9863000000	  59.1584000000	  25.8398000000
H	  40.1180000000	  61.3682459276	  24.6545000000
H	  39.4654000000	  60.4753359276	  23.3064000000
H	  38.1442000000	  60.3228459276	  25.4660000000
H	  38.4076000000	  58.8737000000	  24.7945000000
H	  41.1586000000	  58.0661000000	  25.8301000000
H	  41.5639000000	  59.6747259276	  26.5903000000
O	  38.1423000000	  57.1541000000	  27.9446000000
O	  36.6145000000	  55.9513000000	  26.8576000000
C	  37.2156000000	  56.6672000000	  28.8699000000
C	  36.2872000000	  55.6372000000	  28.1900000000
C	  37.9392000000	  56.4042000000	  26.7845000000
H	  37.6764000000	  56.2802000000	  29.7621000000
H	  36.6654000000	  57.4872000000	  29.2607000000
H	  36.6835000000	  54.6050000000	  28.3738000000
H	  35.1602000000	  55.7841000000	  28.4402000000
H	  38.2465000000	  56.9309000000	  25.8683000000
H	  38.5307000000	  55.4728000000	  26.9306000000
S	  36.9008000000	  61.3209759276	  28.3643000000
O	  37.0395000000	  62.0247559276	  27.0911000000
O	  37.6281000000	  60.0477159276	  28.6019000000
C	  35.1291000000	  60.9179159276	  28.5058000000
C	  37.1722000000	  62.5101659276	  29.7195000000
C	  34.6894000000	  60.1493659276	  27.2598000000
C	  34.8499000000	  60.0917559276	  29.7882000000
C	  38.5351000000	  63.0634859276	  29.5900000000
H	  34.6325000000	  61.8437959276	  28.5736000000
H	  36.5268000000	  63.4016459276	  29.8273000000
H	  37.2277000000	  61.9777159276	  30.6911000000
H	  34.3851000000	  60.9451759276	  26.5534000000
H	  35.5076000000	  59.5938259276	  26.8577000000
H	  33.7992000000	  59.5340159276	  27.4189000000
H	  35.4522000000	  59.2338929276	  29.9906000000
H	  34.8956000000	  60.8622259276	  30.5576000000
H	  33.8291000000	  59.8169759276	  29.7793000000
H	  38.8577000000	  63.4289359276	  30.5673000000
H	  39.2630000000	  62.3250059276	  29.2823000000
H	  38.4745000000	  63.8666559276	  28.9489000000
