57

Li	  29.9643000000	  44.4631000000	  40.0058000000
S	  27.0401000000	  44.7622000000	  41.3367000000
O	  28.1667000000	  44.0984000000	  40.6633000000
O	  26.1847000000	  45.5787000000	  40.4631000000
C	  27.5812000000	  45.7626000000	  42.7455000000
C	  26.0585000000	  43.4886000000	  42.0543000000
C	  26.3685000000	  46.3850000000	  43.4715000000
C	  28.5342000000	  44.9975000000	  43.6610000000
C	  25.6069000000	  42.3512000000	  41.0438000000
H	  28.1448000000	  46.5697000000	  42.2827000000
H	  26.5963000000	  42.9948000000	  42.8706000000
H	  25.2403000000	  44.0478000000	  42.4247000000
H	  26.7271000000	  47.2178000000	  44.1452000000
H	  25.5916000000	  46.7401000000	  42.7178000000
H	  25.9785000000	  45.6265000000	  44.1949000000
H	  29.0481000000	  45.6363000000	  44.4343000000
H	  28.0778000000	  44.1804000000	  44.2151000000
H	  29.3185000000	  44.5963000000	  43.0667000000
H	  24.8678000000	  41.6281000000	  41.4823000000
H	  25.1869000000	  42.7779000000	  40.1748000000
H	  26.5116000000	  41.9019000000	  40.5697000000
S	  29.4590000000	  46.8104000000	  37.8155000000
O	  29.4177000000	  45.6533000000	  38.6909000000
O	  28.4408000000	  47.0469000000	  36.7559000000
C	  31.0820000000	  46.8377000000	  36.8874000000
C	  29.4954000000	  48.2400000000	  38.9094000000
C	  31.2992000000	  48.0877000000	  36.0041000000
C	  32.2006000000	  46.7016000000	  37.9020000000
C	  28.1118000000	  48.5151000000	  39.4596000000
H	  31.1255000000	  46.0234000000	  36.2605000000
H	  30.1604000000	  47.9627000000	  39.7571000000
H	  29.7771000000	  49.1213000000	  38.3046000000
H	  32.2904000000	  48.1717000000	  35.6138000000
H	  30.6329000000	  48.0658000000	  35.1841000000
H	  31.0310000000	  48.9904000000	  36.5096000000
H	  32.3564000000	  47.6172000000	  38.5546000000
H	  32.0410000000	  45.7920000000	  38.4268000000
H	  33.1348000000	  46.6119000000	  37.2867000000
H	  28.1514000000	  49.3663000000	  40.1156000000
H	  27.4491000000	  48.8495000000	  38.6529000000
H	  27.7141000000	  47.5865000000	  40.0240000000
S	  31.1049000000	  42.7238000000	  39.5601000000
S	  30.0203000000	  42.5333000000	  37.8029000000
S	  29.3158000000	  40.5275000000	  37.6714000000
S	  24.9553000000	  39.2082000000	  40.0280000000
S	  25.4257000000	  38.2583000000	  41.8361000000
S	  24.3731000000	  36.4925000000	  41.8071000000
S	  26.4233000000	  38.7155000000	  38.6180000000
S	  27.2211000000	  40.2772000000	  37.5579000000
S	  30.7942000000	  46.0246000000	  41.2782000000
S	  32.8654000000	  45.8350000000	  41.6785000000
S	  33.9653000000	  47.2224000000	  40.5619000000
S	  34.5559000000	  52.0130000000	  39.2693000000
S	  35.0215000000	  53.6262000000	  40.5142000000
S	  33.4816000000	  55.1066000000	  40.3372000000
S	  33.2903000000	  50.7162000000	  40.4207000000
S	  34.2587000000	  49.1768000000	  41.4145000000
