61

Li	   7.9114000000	  27.4000000000	  27.1285000000
S	   7.1086600000	  24.3612000000	  27.3502000000
O	   5.5906000000	  24.5191000000	  27.3671000000
O	   7.8770700000	  25.5977000000	  27.2598000000
C	   7.4947500000	  23.2745000000	  25.9330000000
C	   7.6513100000	  23.2847000000	  28.7514000000
C	   6.9640400000	  24.0141000000	  24.5984000000
C	   9.0055400000	  22.9234000000	  25.8500000000
C	   7.5033300000	  24.0519000000	  30.0194000000
H	   6.9839500000	  22.3169000000	  26.0397000000
H	   7.0176500000	  22.4828000000	  28.6263000000
H	   8.6956000000	  22.9534000000	  28.4549000000
H	   7.4414500000	  23.6330000000	  23.7393000000
H	   5.9116900000	  23.8222000000	  24.3935000000
H	   7.1501700000	  25.1043000000	  24.7048000000
H	   9.0821000000	  22.3545000000	  24.9731000000
H	   9.6119800000	  23.8766000000	  25.7931000000
H	   9.3956700000	  22.3485000000	  26.6907000000
H	   7.9674800000	  24.9878000000	  29.9919000000
H	   6.4719200000	  24.2472000000	  30.0966000000
H	   7.7249200000	  23.4181000000	  30.8848000000
S	   9.5125900000	  30.3851000000	  26.4283000000
O	   8.8930300000	  29.0458000000	  26.6028000000
O	   9.6740600000	  31.1776000000	  27.6271000000
C	   8.4107900000	  31.1828000000	  25.1995000000
C	  11.1170000000	  30.3268000000	  25.4989000000
C	   6.9757100000	  31.1670000000	  25.6550000000
C	   8.9291300000	  32.5909000000	  24.6974000000
C	  12.1652000000	  29.6756000000	  26.3586000000
H	   8.3466600000	  30.5903000000	  24.3036000000
H	  10.8606000000	  29.6767000000	  24.6295000000
H	  11.3918000000	  31.3659000000	  25.2398000000
H	   6.6986900000	  30.1624000000	  26.0411000000
H	   6.8232700000	  31.7752000000	  26.5485000000
H	   6.2702700000	  31.6198000000	  24.9049000000
H	   8.8115300000	  33.3134000000	  25.5438000000
H	   9.9891400000	  32.5855000000	  24.4007000000
H	   8.3273600000	  32.9945000000	  23.8334000000
H	  12.5520000000	  30.3432000000	  27.1221000000
H	  11.7624000000	  28.7851000000	  26.8465000000
H	  13.0782000000	  29.4183000000	  25.7624000000
S	   7.5922900000	  28.5707000000	  30.1528000000
O	   6.9654400000	  27.9754000000	  31.3018000000
O	   7.4960400000	  27.9415000000	  28.8431000000
C	   9.3856600000	  28.7956000000	  30.4783000000
C	   6.9151500000	  30.2611000000	  30.0160000000
C	   9.6164400000	  29.0035000000	  31.9822000000
C	  10.1831000000	  27.6162000000	  29.9485000000
C	   5.4132300000	  30.2256000000	  29.7722000000
H	   9.6991700000	  29.6980000000	  29.9219000000
H	   7.2445400000	  30.8842000000	  30.8476000000
H	   7.3796700000	  30.7147000000	  29.1751000000
H	   9.3891700000	  27.9947000000	  32.4788000000
H	  10.6109000000	  29.2480000000	  32.2755000000
H	   8.9369000000	  29.7842000000	  32.4199000000
H	  10.1653000000	  27.5848000000	  28.8656000000
H	  11.2432000000	  27.8569000000	  30.2364000000
H	   9.7615500000	  26.6830000000	  30.3838000000
H	   5.0221600000	  29.5919000000	  30.5326000000
H	   4.9384700000	  31.1945000000	  29.6882000000
H	   5.1644000000	  29.7710000000	  28.7502000000
