76

Li	  27.7248000000	  54.4090000000	  37.3325000000
S	  29.1685000000	  52.3559000000	  35.1336000000
O	  28.8109000000	  53.2764000000	  36.2113000000
O	  28.2318000000	  52.1426000000	  34.0304000000
C	  29.4923000000	  50.7244000000	  35.8845000000
C	  30.7447000000	  52.9987000000	  34.3768000000
C	  28.2057000000	  50.1233000000	  36.4826000000
C	  30.3177000000	  49.7222000000	  34.9591000000
C	  30.5941000000	  54.5383000000	  34.0991000000
H	  30.1247000000	  50.9046000000	  36.7446000000
H	  31.6597000000	  52.7712000000	  34.8886000000
H	  30.7386000000	  52.5187000000	  33.3567000000
H	  28.4007000000	  49.0627000000	  36.8438000000
H	  27.9108000000	  50.6787000000	  37.3785000000
H	  27.2812000000	  50.0176000000	  35.8543000000
H	  31.3317000000	  49.5689000000	  35.3403000000
H	  29.9139000000	  48.7643000000	  34.7942000000
H	  30.4967000000	  50.0565000000	  33.9523000000
H	  30.3172000000	  54.9816000000	  35.0529000000
H	  31.4302000000	  55.1065000000	  33.7435000000
H	  29.7707000000	  54.7220000000	  33.4567000000
S	  28.3765000000	  52.7391000000	  39.9670000000
O	  28.2463000000	  53.7395000000	  38.9118000000
O	  28.0589000000	  51.3430000000	  39.6574000000
C	  27.4541000000	  53.2754000000	  41.4934000000
C	  30.1156000000	  52.7367000000	  40.5126000000
C	  25.9323000000	  53.5556000000	  41.0451000000
C	  27.4881000000	  52.1346000000	  42.4521000000
C	  30.7100000000	  54.1120000000	  40.7308000000
H	  27.9998000000	  54.0794000000	  41.9817000000
H	  30.2998000000	  52.0576000000	  41.3794000000
H	  30.7170000000	  52.2029000000	  39.7127000000
H	  25.4955000000	  52.6174000000	  40.6174000000
H	  25.3453000000	  53.8499000000	  41.9412000000
H	  25.8803000000	  54.3034000000	  40.2891000000
H	  28.5136000000	  51.8575000000	  42.6984000000
H	  27.0170000000	  52.4699000000	  43.3769000000
H	  26.9483000000	  51.2491000000	  42.0952000000
H	  30.6050000000	  54.8489000000	  39.8886000000
H	  30.1991000000	  54.5609000000	  41.5655000000
H	  31.7744000000	  54.0147000000	  40.9308000000
S	  25.3059000000	  53.8400000000	  35.1245000000
O	  25.3745000000	  52.9037000000	  34.0304000000
O	  26.1263000000	  53.7302000000	  36.3712000000
C	  23.4930000000	  53.9747000000	  35.6694000000
C	  25.6873000000	  55.4566000000	  34.4092000000
C	  23.2628000000	  54.7896000000	  36.8121000000
C	  22.5082000000	  54.1268000000	  34.4597000000
C	  27.1529000000	  55.5251000000	  34.1112000000
H	  23.2499000000	  52.9077000000	  35.9596000000
H	  25.1546000000	  55.5859000000	  33.5582000000
H	  25.3029000000	  56.2981000000	  35.0864000000
H	  22.2588000000	  54.7347000000	  37.1677000000
H	  23.7959000000	  54.3678000000	  37.6809000000
H	  23.4684000000	  55.8496000000	  36.6536000000
H	  21.5121000000	  54.0426000000	  34.7166000000
H	  22.6814000000	  55.1551000000	  34.0840000000
H	  22.7235000000	  53.4244000000	  33.6667000000
H	  27.3952000000	  54.6514000000	  33.4565000000
H	  27.4165000000	  56.3673000000	  33.4502000000
H	  27.7190000000	  55.5122000000	  35.0449000000
N	  27.9275000000	  58.1176000000	  37.9178000000
S	  26.5980000000	  57.4119000000	  38.3654000000
O	  25.4162000000	  58.2731000000	  38.3342000000
O	  26.3763000000	  56.0634000000	  37.9505000000
C	  26.9141000000	  57.1470000000	  40.1236000000
F	  25.9249000000	  56.5103000000	  40.7756000000
F	  27.0525000000	  58.3170000000	  40.6594000000
F	  28.0194000000	  56.4866000000	  40.3293000000
S	  29.3152000000	  57.4750000000	  37.3872000000
O	  29.1519000000	  56.1191000000	  37.0459000000
O	  30.3751000000	  57.7061000000	  38.2997000000
C	  29.5641000000	  58.4990000000	  35.8325000000
F	  28.3959000000	  58.6176000000	  35.1093000000
F	  29.9362000000	  59.7203059276	  36.1307000000
F	  30.4606000000	  57.9463000000	  34.9859000000
