72

Li	  31.6424000000	  45.0107000000	  59.1347000000
O	  34.4323000000	  47.7156000000	  59.6304167724
O	  33.1899000000	  46.1900000000	  58.8657000000
C	  35.1246000000	  47.3631000000	  58.4637000000
C	  34.3378000000	  46.1014000000	  58.0064000000
C	  33.7719000000	  46.5609000000	  60.0380367724
H	  34.9383000000	  48.2351000000	  57.8049000000
H	  36.2186000000	  47.1380000000	  58.4725000000
H	  33.9683000000	  46.1474000000	  56.9876000000
H	  34.8948000000	  45.1435000000	  58.1956000000
H	  34.4405000000	  45.8814000000	  60.5089767724
H	  33.0041000000	  46.8183000000	  60.7921267724
S	  30.1381000000	  44.5276000000	  56.3108000000
O	  31.0270000000	  44.4549000000	  57.4209000000
O	  29.5183000000	  45.8439000000	  56.1489000000
C	  28.8371000000	  43.2768000000	  56.5174000000
C	  30.9437000000	  44.2228000000	  54.6846000000
C	  28.5753000000	  42.9293000000	  57.9763000000
C	  27.5714000000	  43.7035000000	  55.7278000000
C	  30.5344000000	  45.2344000000	  53.6126000000
H	  29.1554000000	  42.2998000000	  56.0040000000
H	  31.9750000000	  44.2798000000	  54.9236000000
H	  30.7492000000	  43.2477000000	  54.2367000000
H	  28.0241000000	  43.7474000000	  58.3651000000
H	  28.0524000000	  41.9948000000	  58.2775000000
H	  29.4348000000	  43.0805000000	  58.6714000000
H	  26.7326000000	  42.9839000000	  55.9504000000
H	  27.2200000000	  44.7275000000	  55.7402000000
H	  27.8786000000	  43.7901000000	  54.6978000000
H	  30.8684000000	  46.2022000000	  53.9001000000
H	  30.9247000000	  44.8575000000	  52.6755000000
H	  29.5268000000	  45.3991000000	  53.3538000000
S	  33.5260000000	  42.6383000000	  60.2494567724
O	  34.9113000000	  42.9975000000	  59.9810167724
O	  32.4102000000	  43.4615000000	  59.6952167724
C	  33.2168000000	  42.3171000000	  62.0447567724
C	  33.2679000000	  41.0201000000	  59.5628267724
C	  33.6775000000	  43.4471000000	  62.9526367724
C	  31.7211000000	  42.0006000000	  62.3274667724
C	  33.2068000000	  41.1193000000	  58.0532000000
H	  33.8993000000	  41.5165000000	  62.2867567724
H	  34.2989000000	  40.5910000000	  59.7466667724
H	  32.5267000000	  40.4699000000	  60.1073667724
H	  34.7512000000	  43.6271000000	  62.8388667724
H	  33.1538000000	  44.4156000000	  62.7707367724
H	  33.6549000000	  43.1493000000	  63.9923267724
H	  31.4907000000	  41.0420000000	  62.0526067724
H	  31.4347000000	  42.1702000000	  63.3171467724
H	  31.1082000000	  42.7020000000	  61.7202367724
H	  32.2725000000	  41.6313000000	  57.7734000000
H	  33.9986000000	  41.8038000000	  57.7059000000
H	  33.2476000000	  40.1245000000	  57.6564000000
S	  29.7600000000	  46.9271000000	  61.0560767724
O	  30.5066000000	  45.7442000000	  60.5176867724
O	  30.4316000000	  48.1691000000	  60.7171167724
C	  29.4139000000	  46.8011000000	  62.9094467724
C	  28.1331000000	  46.9296000000	  60.2872767724
C	  28.6772000000	  48.1104000000	  63.4380367724
C	  28.5670000000	  45.5188000000	  63.1440367724
C	  28.1595000000	  47.1043000000	  58.7898000000
H	  30.4421000000	  46.7158000000	  63.3200867724
H	  27.4883000000	  46.0794000000	  60.5233367724
H	  27.6589000000	  47.7813000000	  60.7063867724
H	  29.3642000000	  48.8608000000	  63.4241367724
H	  27.7513000000	  48.3262000000	  62.8721667724
H	  28.4266000000	  47.9915000000	  64.4895167724
H	  28.8502000000	  44.7693000000	  62.4212667724
H	  28.5991000000	  45.2398000000	  64.1383667724
H	  27.5566000000	  45.7793000000	  62.8508267724
H	  27.1980000000	  47.3475000000	  58.4920000000
H	  28.8212000000	  47.8980000000	  58.5881000000
H	  28.3941000000	  46.1787000000	  58.2048000000
