76

Li	   7.3269900000	  55.3220000000	  39.1044000000
S	  10.3683000000	  56.3364000000	  38.3945000000
O	   9.0441800000	  55.9508000000	  38.9340000000
O	  10.9122000000	  55.5418000000	  37.3146000000
C	  11.6003000000	  56.4755000000	  39.7237000000
C	  10.0815000000	  58.0388000000	  37.7245000000
C	  11.0281000000	  57.3100000000	  40.8947000000
C	  12.1288000000	  55.1165000000	  40.1131000000
C	   9.1918700000	  57.9269000000	  36.5037000000
H	  12.3958000000	  57.0168000000	  39.3164000000
H	   9.5366000000	  58.5843000000	  38.4907000000
H	  11.0576000000	  58.4419000000	  37.4915000000
H	  10.0935000000	  56.8501000000	  41.0836000000
H	  11.5223000000	  57.1202000000	  41.8052000000
H	  10.9152000000	  58.3313000000	  40.6763000000
H	  12.5130000000	  54.5250000000	  39.3088000000
H	  12.8853000000	  55.1122000000	  40.9017000000
H	  11.2617000000	  54.6889000000	  40.4964000000
H	   9.1556300000	  56.9628000000	  35.9987000000
H	   8.1636600000	  58.2438000000	  36.6626000000
H	   9.4451600000	  58.7278000000	  35.6942000000
S	   4.6396400000	  57.2118000000	  38.7469000000
O	   4.1412100000	  57.2843000000	  40.1439000000
O	   5.9061300000	  56.5415000000	  38.4363000000
C	   4.7151200000	  58.9809000000	  38.1299000000
C	   3.3233200000	  56.4865000000	  37.8957000000
C	   3.3595500000	  59.6360759276	  38.4575000000
C	   5.9260400000	  59.6883259276	  38.7966000000
C	   3.5770300000	  56.6948000000	  36.3388000000
H	   4.8730600000	  58.9611000000	  37.0783000000
H	   3.2420300000	  55.4078000000	  38.1700000000
H	   2.3854500000	  56.9836000000	  38.2974000000
H	   3.4636800000	  60.7571659276	  38.5946000000
H	   2.6245600000	  59.3855789276	  37.6564000000
H	   2.9381800000	  59.3048549276	  39.4084000000
H	   6.1127500000	  60.6600659276	  38.3318000000
H	   5.8839900000	  59.8643659276	  39.8166000000
H	   6.7071800000	  59.0014000000	  38.6650000000
H	   4.6166900000	  56.3577000000	  36.1120000000
H	   2.8885400000	  56.2005000000	  35.6428000000
H	   3.4822300000	  57.6546000000	  35.8854000000
S	   5.8818000000	  54.4334000000	  41.8355000000
O	   6.7193300000	  54.9038000000	  40.7178000000
O	   4.6893800000	  55.1624000000	  42.2681000000
C	   7.0089000000	  54.1145000000	  43.2456000000
C	   5.2510900000	  52.7327000000	  41.3821000000
C	   6.3195500000	  53.4485000000	  44.3976000000
C	   8.3334400000	  53.3934000000	  42.9084000000
C	   4.3434200000	  52.7427000000	  40.1478000000
H	   7.3176300000	  55.1275000000	  43.5601000000
H	   6.1801500000	  52.2171000000	  41.1715000000
H	   4.8715800000	  52.1625000000	  42.2435000000
H	   5.9097000000	  52.4801000000	  44.2298000000
H	   7.0373500000	  53.1924000000	  45.2297000000
H	   5.5772000000	  54.1956000000	  44.7801000000
H	   9.1341300000	  53.4747000000	  43.6820000000
H	   8.1707800000	  52.3630000000	  42.7336000000
H	   8.7561100000	  53.7685000000	  41.9548000000
H	   3.8008200000	  51.8022000000	  40.1735000000
H	   3.6228300000	  53.5466000000	  40.1994000000
H	   4.9145300000	  52.7295000000	  39.1970000000
N	   9.0418500000	  52.3310000000	  37.1035000000
S	  10.0292000000	  52.1591000000	  38.3223000000
O	  11.3660000000	  52.4839000000	  37.9694000000
O	   9.5643600000	  52.5405000000	  39.6402000000
C	  10.1719000000	  50.3828000000	  38.2915000000
F	   9.1699800000	  49.7763000000	  38.9261000000
F	  11.2878000000	  50.0499000000	  38.9101000000
F	  10.3043000000	  49.9970000000	  37.0016000000
S	   7.5041900000	  52.5979000000	  37.1640000000
O	   7.0936400000	  53.8990000000	  37.6226000000
O	   6.7169900000	  51.4318000000	  37.4981000000
C	   7.0765500000	  52.7981000000	  35.3827000000
F	   7.3785600000	  51.7364000000	  34.5807000000
F	   5.7407200000	  53.0081000000	  35.1443000000
F	   7.7297900000	  53.8541000000	  34.8579000000
