42

Li	  39.2523000000	  55.1921000000	  28.0133000000
O	  37.2631000000	  54.5486000000	  31.4046000000
O	  37.9637000000	  54.6145000000	  29.2496000000
C	  36.3236000000	  55.4242000000	  30.7110000000
C	  36.7337000000	  55.2894000000	  29.2063000000
C	  37.8303000000	  53.7804000000	  30.3700000000
H	  35.3188000000	  55.0428000000	  30.9233000000
H	  36.3889000000	  56.4725000000	  31.0410000000
H	  36.0450000000	  54.5857000000	  28.7203000000
H	  36.7572000000	  56.2234000000	  28.6313000000
H	  38.7491000000	  53.2298000000	  30.6246000000
H	  37.0878000000	  53.0553000000	  30.2552000000
O	  40.6769000000	  54.0565000000	  27.9455000000
O	  41.9947000000	  52.2065000000	  28.1478000000
C	  42.0192000000	  54.4884000000	  28.3785000000
C	  42.8189000000	  53.3175000000	  28.0184000000
C	  40.8058000000	  52.6969000000	  27.5909000000
H	  42.4870000000	  55.3680000000	  27.8496000000
H	  41.9153000000	  54.6176000000	  29.4794000000
H	  43.2895000000	  53.4160000000	  26.9932000000
H	  43.6197000000	  53.2144000000	  28.7288000000
H	  39.8416000000	  52.1085000000	  27.8135000000
H	  40.7840000000	  52.7569000000	  26.4800000000
O	  38.7074000000	  57.2926000000	  30.9475000000
O	  39.8165000000	  56.9802000000	  28.9491000000
C	  38.1882000000	  58.4022000000	  30.1315000000
C	  38.8510000000	  58.0497000000	  28.7690000000
C	  39.8827000000	  57.1039000000	  30.3222000000
H	  37.0719000000	  58.4162000000	  29.9288000000
H	  38.4969000000	  59.4638659276	  30.4412000000
H	  38.1007000000	  57.8373000000	  27.9995000000
H	  39.3616000000	  58.9571000000	  28.3861000000
H	  40.5242000000	  57.9352000000	  30.4584000000
H	  40.2339000000	  56.1377000000	  30.6504000000
S	  39.1324000000	  55.5590000000	  25.9547000000
S	  38.5352000000	  54.2259000000	  24.3609000000
S	  37.7688000000	  52.3380000000	  24.9584000000
S	  40.4918000000	  48.2370000000	  22.7557000000
S	  39.8523000000	  47.2029000000	  21.0225000000
S	  38.6713000000	  45.3934000000	  21.3921000000
S	  39.3464000000	  49.9879000000	  22.9713000000
S	  39.2421000000	  50.8504000000	  24.8001000000
