56

Li	   3.3118600000	  55.6414000000	  53.3292000000
S	   6.3609900000	  54.4776000000	  54.4510000000
O	   5.0835500000	  54.9433000000	  53.8156000000
O	   6.5454800000	  53.0244000000	  54.6641000000
C	   6.4317700000	  55.2282000000	  56.1321000000
C	   7.8175600000	  55.1712000000	  53.5929000000
C	   5.0728800000	  55.1210000000	  56.7737000000
C	   7.5698200000	  54.6093000000	  56.9544000000
C	   7.7495000000	  56.7134000000	  53.3581000000
H	   6.5340400000	  56.3304000000	  55.9989000000
H	   8.7647700000	  54.8617000000	  54.0834000000
H	   7.8012300000	  54.7125000000	  52.6232000000
H	   4.3435700000	  55.5741000000	  56.1222000000
H	   4.6972000000	  54.1250000000	  56.9308000000
H	   4.8831300000	  55.7624000000	  57.6484000000
H	   7.5069400000	  53.5525000000	  56.9811000000
H	   8.5023900000	  55.0270000000	  56.5879000000
H	   7.5113900000	  54.9868000000	  57.9694000000
H	   8.6801700000	  56.9357000000	  52.7979000000
H	   6.8356200000	  57.0608000000	  52.9397000000
H	   7.8957700000	  57.2671000000	  54.2716000000
S	   3.0173800000	  54.4403000000	  50.2105000000
O	   2.7203300000	  55.0723000000	  48.9776000000
O	   3.1861200000	  55.3246000000	  51.3604000000
C	   4.4477300000	  53.4499000000	  49.9239000000
C	   1.7540000000	  53.2175000000	  50.4170000000
C	   5.5591900000	  54.4805000000	  49.4758000000
C	   4.8899500000	  52.7576000000	  51.2180000000
C	   0.4186889552	  53.8242000000	  50.8933000000
H	   4.2241600000	  52.7178000000	  49.2055000000
H	   1.5032800000	  52.9107000000	  49.3904000000
H	   2.0333700000	  52.4185000000	  51.0747000000
H	   5.6735900000	  55.2552000000	  50.2388000000
H	   6.5234000000	  53.9508000000	  49.2915000000
H	   5.2255700000	  55.0586000000	  48.5570000000
H	   5.2668400000	  53.5350000000	  51.8627000000
H	   4.2880300000	  52.1334000000	  51.8980000000
H	   5.7559200000	  52.1605000000	  50.9224000000
H	  -0.4646110448	  53.1290000000	  50.8740000000
H	   0.5146889552	  54.1794000000	  51.8671000000
H	   0.2579889552	  54.6741000000	  50.2501000000
N	   3.9514000000	  59.7924759276	  52.9489000000
S	   2.8475300000	  58.8458000000	  53.4150000000
O	   1.5926800000	  59.2323179276	  52.7668000000
O	   3.2704800000	  57.4640000000	  53.4528000000
C	   2.7811700000	  59.2035000000	  55.2299000000
F	   2.4192800000	  60.4233659276	  55.4464000000
F	   3.9850000000	  58.9886000000	  55.7673000000
F	   1.9015000000	  58.4074000000	  55.8584000000
S	   3.9451000000	  60.9762359276	  51.9398000000
O	   4.2133200000	  62.2996959276	  52.5327000000
O	   2.8785900000	  60.8654859276	  50.9491000000
C	   5.4976200000	  60.6738359276	  50.9869000000
F	   5.7959200000	  61.7351059276	  50.2551000000
F	   6.5253800000	  60.3806559276	  51.7806000000
F	   5.3826200000	  59.6864759276	  50.1157000000
