63

Li	  41.1077000000	  34.9709000000	  11.1073000000
O	  43.9506000000	  33.4055000000	   8.3296000000
O	  42.8473000000	  34.4559000000	  10.0636000000
C	  43.8910000000	  34.7833000000	   7.9903700000
C	  43.2700000000	  35.4535000000	   9.2069900000
C	  43.6839000000	  33.3224000000	   9.6920500000
H	  44.8598000000	  35.1588000000	   7.8738900000
H	  43.2907000000	  34.8857000000	   7.0700500000
H	  44.0646000000	  35.9914000000	   9.6284500000
H	  42.5583000000	  36.1734000000	   8.8902000000
H	  43.2043000000	  32.3778000000	   9.8993100000
H	  44.6527000000	  33.3556000000	  10.2407000000
O	  39.9722000000	  34.9490000000	   9.7062800000
O	  40.0919000000	  35.3569000000	   7.5389600000
C	  39.7216000000	  33.7709000000	   8.9528300000
C	  40.3107000000	  33.9568000000	   7.6059000000
C	  39.7698000000	  35.9442000000	   8.7857900000
H	  40.1614000000	  32.9089000000	   9.4570100000
H	  38.6712000000	  33.6334000000	   8.7387700000
H	  41.3418000000	  33.6252000000	   7.7073900000
H	  39.7378000000	  33.4103000000	   6.8307100000
H	  38.6612000000	  36.1143000000	   8.7791300000
H	  40.2762000000	  36.8765000000	   9.0248700000
S	  41.9270000000	  38.2802000000	  11.5898000000
O	  41.4630000000	  36.9120000000	  11.3503000000
O	  42.4182000000	  39.0822000000	  10.4153000000
C	  43.2870000000	  38.1409000000	  12.8013000000
C	  40.5397000000	  39.2139000000	  12.3229000000
C	  42.7938000000	  37.7623000000	  14.1489000000
C	  44.2319000000	  37.1475000000	  12.1802000000
C	  39.2874000000	  39.0121000000	  11.5435000000
H	  43.6798000000	  39.1274000000	  12.8649000000
H	  40.3995000000	  38.7027000000	  13.2195000000
H	  40.9038000000	  40.2424000000	  12.3654000000
H	  42.1644000000	  36.8613000000	  14.1506000000
H	  43.5803000000	  37.5100000000	  14.8370000000
H	  42.2898000000	  38.6476000000	  14.5717000000
H	  45.1619000000	  36.9252000000	  12.7048000000
H	  43.8275000000	  36.1742000000	  11.9704000000
H	  44.4657000000	  37.6443000000	  11.2433000000
H	  39.2495000000	  39.4582000000	  10.5530000000
H	  39.0741000000	  37.9568000000	  11.3913000000
H	  38.3880000000	  39.4078000000	  12.0876000000
S	  41.7668000000	  33.3807000000	  13.7519000000
O	  41.3139000000	  33.5590000000	  12.3402000000
O	  42.5542000000	  34.4995000000	  14.3407000000
C	  42.8863000000	  31.8951000000	  13.7999000000
C	  40.3317000000	  32.9361000000	  14.7411000000
C	  43.2743000000	  31.5929000000	  15.2845000000
C	  42.2646000000	  30.7583000000	  13.0679000000
C	  39.1101000000	  33.7947000000	  14.6020000000
H	  43.7913000000	  32.1071000000	  13.2394000000
H	  40.0271000000	  31.9422000000	  14.4540000000
H	  40.8071000000	  32.8178000000	  15.7350000000
H	  43.6284000000	  32.5310000000	  15.7250000000
H	  42.5155000000	  31.0777000000	  15.8744000000
H	  44.1219000000	  30.9124000000	  15.3145000000
H	  42.7838000000	  29.8017000000	  13.0402000000
H	  41.3983000000	  30.4320000000	  13.6104000000
H	  42.0225000000	  30.9750000000	  12.0230000000
H	  38.4155000000	  33.4317000000	  15.3463000000
H	  39.3380000000	  34.8991000000	  14.7608000000
H	  38.6555000000	  33.6656000000	  13.6533000000
