87

Li	   9.9876200000	  39.9226000000	  13.7741000000
O	   8.9834500000	  43.6374000000	  12.6695000000
O	   9.2717200000	  41.9888000000	  14.1533000000
C	   9.4032700000	  44.2198000000	  13.8546000000
C	   9.8784400000	  43.1216000000	  14.7553000000
C	   8.4674700000	  42.4443000000	  13.1879000000
H	  10.1062000000	  45.0424000000	  13.7610000000
H	   8.5539400000	  44.7185000000	  14.2488000000
H	  10.9455000000	  43.0122000000	  14.5188000000
H	   9.7544600000	  43.4365000000	  15.7653000000
H	   7.5095000000	  42.5239000000	  13.6955000000
H	   8.3831800000	  41.6841000000	  12.4231000000
S	  13.3109000000	  41.0433000000	  13.9411000000
O	  11.8514000000	  40.7271000000	  13.9326000000
O	  14.1042000000	  40.9454000000	  15.1908000000
C	  13.7106000000	  42.7289000000	  13.2345000000
C	  14.1461000000	  39.8440000000	  12.7548000000
C	  15.1685000000	  42.9268000000	  12.8990000000
C	  12.8394000000	  43.0418000000	  12.0055000000
C	  13.7602000000	  38.3614000000	  13.1459000000
H	  13.4336000000	  43.3668000000	  14.0591000000
H	  13.8514000000	  39.9548000000	  11.7182000000
H	  15.2361000000	  39.8902000000	  12.8008000000
H	  15.4544000000	  43.8764000000	  12.3959000000
H	  15.8027000000	  42.6659000000	  13.7178000000
H	  15.3941000000	  42.3675000000	  12.0023000000
H	  12.9790000000	  44.0684000000	  11.6293000000
H	  13.0914000000	  42.4113000000	  11.1655000000
H	  11.7707000000	  42.8134000000	  12.1647000000
H	  12.7094000000	  38.3038000000	  13.4147000000
H	  13.9479000000	  37.6032000000	  12.4197000000
H	  14.3438000000	  37.9465000000	  13.9840000000
S	   7.3937100000	  37.9519000000	  12.6996000000
O	   6.8898600000	  37.9740000000	  11.3517000000
O	   8.4760500000	  38.8769000000	  13.0331000000
C	   7.8870900000	  36.1892000000	  13.0638000000
C	   6.0110200000	  38.2124000000	  13.9013000000
C	   6.6640700000	  35.2782000000	  12.6285000000
C	   9.1174200000	  35.7761000000	  12.2796000000
C	   5.5489800000	  39.7159000000	  13.9448000000
H	   8.1450500000	  36.0189000000	  14.1053000000
H	   5.2418200000	  37.5192000000	  13.6139000000
H	   6.3769000000	  38.0002000000	  14.9138000000
H	   6.4199200000	  35.2751000000	  11.6198000000
H	   6.8641500000	  34.2072000000	  12.7208000000
H	   5.8963700000	  35.3630000000	  13.4197000000
H	   9.4417100000	  34.7438000000	  12.5934000000
H	   8.8851000000	  35.6884000000	  11.2047000000
H	   9.9498800000	  36.4664000000	  12.4469000000
H	   4.8210200000	  39.8930000000	  14.7510000000
H	   6.4106700000	  40.3216000000	  14.1173000000
H	   5.1297100000	  39.9811000000	  12.9936000000
S	   9.8144400000	  39.6359000000	  17.0139000000
O	  10.0466000000	  41.0610000000	  17.3680000000
O	   9.6858300000	  39.2639000000	  15.6055000000
C	   8.2124800000	  39.0775000000	  17.8990000000
C	  11.1538000000	  38.6973000000	  17.6725000000
C	   7.0445300000	  40.0444000000	  17.5358000000
C	   7.9265800000	  37.6523000000	  17.5512000000
C	  12.4118000000	  38.9640000000	  16.8545000000
H	   8.4647300000	  39.2126000000	  19.0050000000
H	  11.2809000000	  38.9791000000	  18.7223000000
H	  10.8764000000	  37.6509000000	  17.6571000000
H	   7.0254100000	  40.0097000000	  16.4284000000
H	   6.1078600000	  39.6606000000	  18.0015000000
H	   7.2613200000	  41.0637000000	  17.8232000000
H	   6.9580200000	  37.4212000000	  17.9335000000
H	   7.9238200000	  37.5000000000	  16.4419000000
H	   8.6792900000	  36.9878000000	  18.0154000000
H	  12.5069000000	  38.6187000000	  15.7923000000
H	  12.6073000000	  40.0327000000	  16.7031000000
H	  13.1841000000	  38.2783000000	  17.2526000000
N	   9.2037000000	  40.7548000000	   9.7221400000
S	   8.0428300000	  40.5582000000	   8.6736900000
O	   8.2288300000	  41.4466000000	   7.5443100000
O	   7.7364800000	  39.1728000000	   8.5271100000
C	   6.6552500000	  41.2371000000	   9.6863500000
F	   5.4675300000	  40.9678000000	   9.1449200000
F	   6.8075300000	  42.5499000000	   9.6954000000
F	   6.6513800000	  40.8309000000	  10.9465000000
S	  10.1597000000	  39.6857000000	  10.3124000000
O	   9.8268000000	  38.2686000000	  10.1287000000
O	  10.6712000000	  40.0076000000	  11.6187000000
C	  11.6894000000	  39.9392000000	   9.2048400000
F	  12.8329000000	  39.3684000000	   9.6290000000
F	  11.4792000000	  39.4925000000	   7.9622900000
F	  12.0586000000	  41.1565000000	   9.1334200000
