48

Li	  29.0913000000	   8.0490800000	  36.8437000000
O	  30.7620000000	   7.8475300000	  35.9784000000
O	  32.1498000000	   8.7905400000	  34.4251000000
C	  30.8410000000	   6.9886300000	  34.8642000000
C	  31.1987000000	   7.9560000000	  33.8060000000
C	  31.8429000000	   8.7585700000	  35.8455000000
H	  31.5034000000	   6.1538200000	  35.0958000000
H	  30.0041000000	   6.2885600000	  34.6564000000
H	  31.5645000000	   7.5657000000	  32.8782000000
H	  30.3526000000	   8.5625900000	  33.6411000000
H	  31.3498000000	   9.6679200000	  36.2308000000
H	  32.6377000000	   8.3595200000	  36.4555000000
S	  28.6228000000	   5.0263900000	  37.4351000000
O	  29.2951000000	   6.3567500000	  37.5393000000
O	  28.1411000000	   4.5490800000	  36.1230000000
C	  27.2956000000	   4.9257500000	  38.7224000000
C	  29.7542000000	   3.7245100000	  38.0758000000
C	  27.9513000000	   4.8491600000	  40.1298000000
C	  26.3567000000	   6.1078200000	  38.4626000000
C	  30.9466000000	   3.6882800000	  37.0344000000
H	  26.8047000000	   3.9766600000	  38.4920000000
H	  30.2043000000	   4.0682600000	  38.9477000000
H	  29.2566000000	   2.7631800000	  38.1190000000
H	  27.0570000000	   4.6145200000	  40.7885000000
H	  28.6237000000	   4.0984800000	  40.4853000000
H	  28.2401000000	   5.8819900000	  40.3943000000
H	  25.9891000000	   6.0133500000	  37.4479000000
H	  25.5274000000	   6.0373700000	  39.1425000000
H	  26.9452000000	   7.0562200000	  38.6038000000
H	  31.6819000000	   4.5119600000	  37.1538000000
H	  31.6512000000	   2.9083200000	  37.3666000000
H	  30.6510000000	   3.5595400000	  35.9574000000
S	  27.6702000000	   8.2466000000	  35.0921000000
S	  28.1168000000	   9.9735100000	  33.9042000000
S	  26.4165000000	  11.0913000000	  33.1900000000
S	  22.8319000000	  12.0366000000	  30.7015000000
S	  21.4415000000	  10.8541000000	  29.6858000000
S	  20.1436000000	   9.9044500000	  30.9619000000
S	  24.8531000000	  11.7316000000	  30.0070000000
S	  25.9248000000	  10.4386000000	  31.2454000000
S	  28.8319000000	   9.5723700000	  38.2043000000
S	  30.4856000000	   9.3226400000	  39.5454000000
S	  30.9973000000	   7.2643600000	  39.9572000000
S	  33.0276000000	   3.1840600000	  40.2046000000
S	  31.9725000000	   2.3614300000	  41.8463000000
S	  33.1660000000	   0.8629440000	  42.9029000000
S	  33.7029000000	   5.2099400000	  40.4795000000
S	  32.7099000000	   6.4673800000	  39.0923000000
