69

Li	  31.6715000000	  20.3472000000	  26.3168000000
S	  30.8655000000	  22.6253000000	  24.1434000000
O	  31.4781000000	  21.5801000000	  25.0187000000
O	  30.0279000000	  22.1962000000	  23.0000000000
C	  32.1155000000	  23.8388000000	  23.6029000000
C	  29.8108000000	  23.6679000000	  25.1677000000
C	  33.4139000000	  23.4439000000	  24.2732000000
C	  32.2223000000	  23.9018000000	  22.1518000000
C	  28.7247000000	  22.8906000000	  25.9943000000
H	  31.8133000000	  24.8584000000	  23.8844000000
H	  30.4090000000	  24.4138000000	  25.7728000000
H	  29.2776000000	  24.3380000000	  24.4558000000
H	  33.3694000000	  23.6282000000	  25.2960000000
H	  33.7764000000	  22.4180000000	  24.1806000000
H	  34.1280000000	  24.1391000000	  23.8594000000
H	  31.4434000000	  24.6285000000	  21.8283000000
H	  33.1842000000	  24.1977000000	  21.9088000000
H	  32.1645000000	  22.9388000000	  21.6768000000
H	  29.2111000000	  22.1813000000	  26.6506000000
H	  28.0146000000	  23.4410000000	  26.5735000000
H	  28.0297000000	  22.3224000000	  25.3160000000
S	  31.6664000000	  22.5135000000	  28.5789000000
O	  31.8946000000	  23.6865000000	  27.7654000000
O	  31.5970000000	  21.1056000000	  27.9957000000
C	  30.1497000000	  22.6335000000	  29.5575000000
C	  32.9710000000	  22.5538000000	  29.8117000000
C	  30.1743000000	  21.8433000000	  30.8765000000
C	  29.6767000000	  24.0462000000	  29.7104000000
C	  34.3727000000	  22.5642000000	  29.1439000000
H	  29.3265000000	  22.2479000000	  29.0357000000
H	  32.7227000000	  23.4588000000	  30.3901000000
H	  32.7760000000	  21.6114000000	  30.2589000000
H	  30.5774000000	  20.8406000000	  30.6601000000
H	  30.8016000000	  22.3208000000	  31.6946000000
H	  29.1802000000	  21.7127000000	  31.3129000000
H	  28.6322000000	  23.9099000000	  30.0632000000
H	  30.2496000000	  24.5233000000	  30.4991000000
H	  29.6253000000	  24.5558000000	  28.7584000000
H	  35.2823000000	  22.6878000000	  29.7786000000
H	  34.5603000000	  21.6503000000	  28.6551000000
H	  34.3467000000	  23.4368000000	  28.4417000000
S	  29.4640000000	  18.0213000000	  26.9677000000
O	  28.5603000000	  17.1291000000	  26.2409000000
O	  30.3135000000	  18.9678000000	  26.3326000000
C	  30.4539000000	  17.0702000000	  28.2373000000
C	  28.3526000000	  18.9928000000	  28.0339000000
C	  31.3644000000	  16.0374000000	  27.5696000000
C	  31.3107000000	  18.0326000000	  29.0548000000
C	  27.4739000000	  18.2061000000	  28.9958000000
H	  29.9054000000	  16.5591000000	  28.9679000000
H	  28.9449000000	  19.7174000000	  28.6896000000
H	  27.7117000000	  19.5083000000	  27.2424000000
H	  32.0457000000	  16.4218000000	  26.8549000000
H	  32.0775000000	  15.5644000000	  28.3185000000
H	  30.7505000000	  15.2376000000	  27.1343000000
H	  31.9281000000	  17.6155000000	  29.8716000000
H	  32.0164000000	  18.3987000000	  28.3130000000
H	  30.8680000000	  18.7876000000	  29.6602000000
H	  27.0787000000	  17.3616000000	  28.3662000000
H	  27.9783000000	  17.6964000000	  29.7591000000
H	  26.6449000000	  18.7367000000	  29.4751000000
S	  33.5676000000	  19.1517000000	  26.0384000000
S	  34.2048000000	  19.2116000000	  24.0358000000
S	  35.9535000000	  18.0081000000	  23.6343000000
S	  36.9905000000	  14.4938000000	  21.0824000000
S	  36.9337000000	  12.3414000000	  21.0000000000
S	  38.2892000000	  11.3012000000	  22.1867000000
S	  35.1714000000	  15.3331000000	  21.6963000000
S	  35.3842000000	  15.9429000000	  23.6949000000
