49

Li	  49.8321000000	  23.8930000000	  36.8566000000
O	  46.2551000000	  23.1811000000	  34.9054000000
O	  48.1747000000	  23.9221000000	  35.9568000000
C	  47.0666000000	  23.6215000000	  33.8752000000
C	  48.3743000000	  23.7612000000	  34.5670000000
C	  46.7939000000	  23.7777000000	  36.0652000000
H	  46.9197000000	  22.8496000000	  33.0830000000
H	  46.8012000000	  24.6108000000	  33.4018000000
H	  48.9637000000	  22.8866000000	  34.2585000000
H	  48.9578000000	  24.6187000000	  34.1847000000
H	  46.2787000000	  24.7052000000	  36.0681000000
H	  46.5240000000	  23.2667000000	  37.0170000000
O	  49.6676000000	  25.4792000000	  38.1139000000
O	  48.5282000000	  23.0514000000	  38.5894000000
O	  51.0620000000	  25.3651000000	  35.5829000000
C	  48.4302000000	  25.4520000000	  38.8601000000
C	  49.8067000000	  26.5519000000	  37.2052000000
C	  48.3979000000	  24.1442000000	  39.6075000000
C	  51.1331000000	  26.4925000000	  36.4193000000
C	  48.2588000000	  21.7079000000	  39.0570000000
C	  52.2417000000	  25.0363000000	  34.9450000000
C	  49.3886000000	  20.9378000000	  39.7933000000
C	  53.0927000000	  26.2201000000	  34.4040000000
H	  48.4505000000	  26.2876000000	  39.5174000000
H	  47.5649000000	  25.5225000000	  38.1953000000
H	  49.0195000000	  26.6379000000	  36.4607000000
H	  49.7991000000	  27.4567000000	  37.7717000000
H	  49.3013000000	  24.0753000000	  40.2023000000
H	  47.5156000000	  24.0181000000	  40.1773000000
H	  51.4303000000	  27.4171000000	  35.8541000000
H	  51.9873000000	  26.2662000000	  37.1961000000
H	  47.3660000000	  21.7293000000	  39.7408000000
H	  48.0827000000	  21.1253000000	  38.1374000000
H	  52.9488000000	  24.5024000000	  35.5633000000
H	  52.0489000000	  24.6149000000	  33.9267000000
H	  49.1660000000	  19.9004000000	  40.0529000000
H	  50.1450000000	  21.0642000000	  39.0338000000
H	  49.8152000000	  21.4564000000	  40.7111000000
H	  53.5351000000	  26.8484000000	  35.1846000000
H	  53.9146000000	  25.8904000000	  33.8085000000
H	  52.4329000000	  26.8203000000	  33.8083000000
S	  50.8766000000	  22.0301000000	  36.5016000000
S	  49.6557000000	  20.2749000000	  36.1633000000
S	  50.7097000000	  18.4524000000	  36.2960000000
S	  53.0234000000	  16.8404000000	  31.8499000000
S	  52.8948000000	  14.9309000000	  31.0679000000
S	  54.3132000000	  14.2981000000	  29.6155000000
S	  52.6836000000	  16.8209000000	  33.8745000000
S	  50.8638000000	  17.6069000000	  34.3210000000
