35

Li	  25.5602000000	  53.1138000000	   1.3355200000
O	  29.3155000000	  51.8441000000	  -0.1258146520
O	  27.7323000000	  53.3416000000	   0.4640853480
C	  29.9065000000	  53.1631000000	  -0.3750146520
C	  28.9664000000	  54.1014000000	   0.3878853480
C	  28.1333000000	  52.0019000000	   0.5416853480
H	  30.8720000000	  53.2221000000	   0.0156853480
H	  29.9316000000	  53.3722000000	  -1.4307146520
H	  29.2392000000	  54.2436000000	   1.4494800000
H	  28.8083000000	  55.0989000000	  -0.0531146520
H	  27.3262000000	  51.3829000000	   0.1395853480
H	  28.3870000000	  51.8630000000	   1.5577500000
N	  24.0334000000	  55.1201000000	  -0.8627146520
S	  24.4524000000	  53.7876000000	  -1.4463146520
O	  25.0982000000	  53.8590000000	  -2.7575146520
O	  25.0532000000	  52.9373000000	  -0.4981146520
C	  22.8199000000	  52.9666000000	  -1.7198146520
F	  22.1019000000	  52.8871000000	  -0.5663146520
F	  22.9467000000	  51.7116000000	  -2.1786146520
F	  22.0548000000	  53.6325000000	  -2.6146146520
S	  24.5496000000	  55.8981000000	   0.3818853480
O	  24.8844000000	  57.2932000000	   0.2533853480
O	  25.4097000000	  55.0778000000	   1.2409100000
C	  23.0014000000	  55.9871000000	   1.2824100000
F	  23.0804000000	  56.8356000000	   2.2989000000
F	  22.0371000000	  56.4276000000	   0.4775853480
F	  22.6901000000	  54.7784000000	   1.6738600000
S	  24.3949000000	  51.7502000000	   2.3590500000
S	  25.0160000000	  53.2334000000	   3.7028800000
S	  27.1152000000	  53.3859000000	   3.7596400000
S	  30.8751000000	  50.6428000000	   6.4706500000
S	  32.8474000000	  51.1049000000	   6.0795700000
S	  33.8851000000	  52.2416000000	   7.4701800000
S	  29.5612000000	  51.2882000000	   4.8605800000
S	  28.0394000000	  52.6665000000	   5.4966500000
