30

Li	  51.8839000000	  40.8650000000	   5.5660600000
O	  53.1028000000	  39.1858000000	   5.7740700000
O	  52.8916000000	  41.6485000000	   7.0183600000
O	  52.6119000000	  40.6156000000	   3.6849300000
C	  54.0571000000	  39.5821000000	   6.8158400000
C	  53.6239000000	  38.5412000000	   4.6608700000
C	  53.4106000000	  40.6110000000	   7.7727000000
C	  53.7536000000	  39.7496000000	   3.6498200000
C	  52.2437000000	  42.6711000000	   7.8136000000
C	  52.8508000000	  41.6842000000	   2.7268700000
C	  51.3292000000	  43.5025000000	   6.9370600000
C	  51.8808000000	  42.7624000000	   2.6548300000
H	  54.4050000000	  38.6989000000	   7.2749600000
H	  54.8877000000	  40.0194000000	   6.2303200000
H	  54.5388000000	  37.9373000000	   4.6282800000
H	  52.7949000000	  38.0203000000	   4.1239500000
H	  52.6008000000	  40.1614000000	   8.3878900000
H	  54.1314000000	  40.9686000000	   8.5076600000
H	  54.6521000000	  40.2666000000	   3.8658500000
H	  53.8471000000	  39.3465000000	   2.6192700000
H	  51.5521000000	  42.2741000000	   8.5447700000
H	  52.9625000000	  43.3135000000	   8.3239100000
H	  53.8019000000	  42.2356000000	   2.8320300000
H	  53.0084000000	  41.3561000000	   1.7079200000
H	  51.9850000000	  43.8619000000	   6.1116100000
H	  50.4317000000	  42.9626000000	   6.5327500000
H	  50.9641000000	  44.4497000000	   7.4547700000
H	  51.7544000000	  43.2039000000	   3.6080300000
H	  52.1137000000	  43.5343000000	   1.9211400000
H	  50.9283000000	  42.3143000000	   2.4759300000
