30

Li	  28.8671000000	  26.8669000000	  39.0316000000
O	  28.4006000000	  28.5695000000	  38.6877000000
O	  27.1258000000	  26.1135000000	  38.4767000000
O	  29.1729000000	  28.4102000000	  41.3137000000
C	  27.1728000000	  28.5161000000	  37.8787000000
C	  28.5073000000	  29.7586000000	  39.4280000000
C	  27.0185000000	  27.0371000000	  37.4144000000
C	  29.5901000000	  29.5525000000	  40.5164000000
C	  26.6189000000	  24.8681000000	  38.0593000000
C	  30.0419000000	  27.9056000000	  42.3212000000
C	  26.7394000000	  23.9938000000	  39.2770000000
C	  29.4268000000	  26.7080000000	  42.9650000000
H	  26.3448000000	  28.8183000000	  38.4465000000
H	  27.2161000000	  29.1752000000	  36.9684000000
H	  28.8921000000	  30.5673000000	  38.7765000000
H	  27.5746000000	  29.9040000000	  39.9919000000
H	  26.1457000000	  26.8557000000	  36.8888000000
H	  27.8470000000	  26.8582000000	  36.7681000000
H	  30.5311000000	  29.2545000000	  40.1268000000
H	  29.8638000000	  30.4663000000	  41.1037000000
H	  25.5389000000	  24.8460000000	  37.8389000000
H	  27.0625000000	  24.3649000000	  37.1587000000
H	  31.0082000000	  27.6611000000	  41.7912000000
H	  30.3328000000	  28.6776000000	  43.1060000000
H	  27.7350000000	  23.7761000000	  39.6550000000
H	  26.1915000000	  24.4882000000	  40.0582000000
H	  26.2294000000	  23.0625000000	  39.0990000000
H	  29.0200000000	  26.1648000000	  42.1002000000
H	  30.0903000000	  26.2003000000	  43.6253000000
H	  28.5692000000	  27.0557000000	  43.5342000000
