53

Li	  30.3938000000	  31.9848000000	  39.3260000000
O	  29.7343000000	  31.0949000000	  37.8673000000
O	  30.0624000000	  30.1484000000	  34.7257000000
O	  29.3574000000	  33.5384000000	  39.1355000000
C	  29.9335000000	  29.8600000000	  37.1674000000
C	  28.7018000000	  31.8926000000	  37.3504000000
C	  30.8298000000	  29.9941000000	  35.8847000000
C	  29.1035000000	  33.3791000000	  37.7384000000
C	  30.4992000000	  30.9986000000	  33.6613000000
C	  29.0680000000	  34.8314000000	  39.7868000000
C	  31.2874000000	  30.0374000000	  32.7987000000
C	  29.6048000000	  34.5347000000	  41.2470000000
H	  30.5248000000	  29.2330000000	  37.8585000000
H	  28.9968000000	  29.3892000000	  36.8920000000
H	  28.4512000000	  31.7019000000	  36.2645000000
H	  27.9119000000	  31.5639000000	  38.0249000000
H	  31.4774000000	  30.9100000000	  35.9877000000
H	  31.4974000000	  29.1755000000	  35.7161000000
H	  29.9093000000	  33.8411000000	  37.2057000000
H	  28.2709000000	  33.9904000000	  37.5437000000
H	  29.6654000000	  31.4188000000	  33.1023000000
H	  31.2193000000	  31.7665000000	  34.0061000000
H	  29.7451000000	  35.6200000000	  39.3429000000
H	  27.9405000000	  35.0328000000	  39.6539000000
H	  30.6431000000	  29.1906000000	  32.5079000000
H	  31.7421000000	  30.3487000000	  31.8422000000
H	  32.0663000000	  29.5412000000	  33.3645000000
H	  30.6111000000	  34.0540000000	  41.2341000000
H	  29.5564000000	  35.3932000000	  41.8527000000
H	  28.9273000000	  33.8447000000	  41.6989000000
N	  27.2684000000	  31.7089000000	  42.3967000000
S	  28.3962000000	  30.6913000000	  42.0602000000
O	  29.4550000000	  31.2363000000	  41.1476000000
O	  28.7468000000	  29.7766000000	  43.0748000000
C	  27.5761000000	  29.5228000000	  40.9370000000
F	  27.2809000000	  30.1240000000	  39.8289000000
F	  26.5181000000	  28.9900000000	  41.4882000000
F	  28.4076000000	  28.5535000000	  40.6284000000
S	  26.4794000000	  31.9856000000	  43.7435000000
O	  26.9189000000	  31.2639000000	  44.8909000000
O	  25.0594000000	  31.9794000000	  43.5385000000
C	  26.9647000000	  33.6965000000	  44.1069000000
F	  28.0357000000	  33.7015000000	  44.8041000000
F	  27.1286000000	  34.3565000000	  42.9895000000
F	  26.0178000000	  34.3760000000	  44.8094000000
S	  32.3961000000	  33.1109000000	  39.1673000000
S	  32.5149000000	  31.1026000000	  39.5760000000
S	  34.0187000000	  30.4916000000	  40.8349000000
S	  33.4294000000	  26.6103000000	  43.9615000000
S	  34.0054000000	  25.5224000000	  42.1696000000
S	  34.0104000000	  23.4385000000	  42.4079000000
S	  34.2195000000	  28.7034000000	  43.7768000000
S	  32.9944000000	  29.9665000000	  42.6607000000
