35

Li	  30.7565000000	  45.2171000000	   1.2321300000
O	  31.1376000000	  43.8193000000	   2.4181700000
O	  30.8711000000	  42.9356000000	   4.3646900000
C	  30.8802000000	  42.4425000000	   2.1850200000
C	  30.6824000000	  41.8500000000	   3.5752000000
C	  31.6458000000	  43.8560000000	   3.7004100000
H	  29.9398000000	  42.4356000000	   1.5565800000
H	  31.7558000000	  41.9529000000	   1.6200900000
H	  29.6707000000	  41.5060000000	   3.7811400000
H	  31.4372000000	  41.0886000000	   3.9111800000
H	  32.6848000000	  43.5445000000	   3.6400400000
H	  31.5949000000	  44.8453000000	   4.1563300000
N	  33.5354000000	  44.8512000000	  -1.3260146520
S	  32.0585000000	  44.7657000000	  -1.5335146520
O	  31.7815000000	  43.5724000000	  -2.2324146520
O	  31.2552000000	  45.1500000000	  -0.4110146520
C	  31.7756000000	  45.9580000000	  -2.8660146520
F	  32.6585000000	  45.8154000000	  -3.9168146520
F	  31.9968000000	  47.1532000000	  -2.4220146520
F	  30.5289000000	  45.9521000000	  -3.2479146520
S	  34.3829000000	  44.7695000000	   0.0205853480
O	  35.7567000000	  44.3799000000	  -0.1983146520
O	  33.7574000000	  44.2657000000	   1.2255100000
C	  34.5364000000	  46.6048000000	   0.5396853480
F	  33.3712000000	  47.2102000000	   0.6255853480
F	  35.0962000000	  46.7008000000	   1.7092100000
F	  35.2527000000	  47.3739000000	  -0.3342146520
S	  28.6589000000	  45.3698000000	   1.6460300000
S	  29.6308000000	  47.1817000000	   2.0408800000
S	  30.2853000000	  47.3956000000	   4.0620200000
S	  33.8941000000	  47.6767000000	   6.8492800000
S	  35.0560000000	  49.2193000000	   7.6395900000
S	  35.8776000000	  48.6987000000	   9.5267900000
S	  33.7039000000	  47.9678000000	   4.7000900000
S	  31.8845000000	  48.8637000000	   4.2106700000
