67

Li	  32.1732000000	  54.2896000000	  31.6155000000
O	  28.6792000000	  54.9183000000	  32.9853000000
O	  31.1477000000	  53.0677000000	  32.4591000000
O	  28.1513000000	  57.7296000000	  31.7955000000
C	  28.7315000000	  53.4996000000	  32.8262000000
C	  27.5370000000	  55.5332000000	  32.4830000000
C	  30.0616000000	  52.9622000000	  33.3573000000
C	  27.6322000000	  57.0611000000	  32.8663000000
C	  31.0993000000	  52.1963000000	  31.3018000000
C	  28.0089000000	  59.0897000000	  31.8349000000
C	  31.6050000000	  50.7031000000	  31.6370000000
C	  28.8910000000	  59.7349866424	  30.8218000000
H	  27.9643000000	  53.0770000000	  33.4723000000
H	  28.5179000000	  53.2283000000	  31.7283000000
H	  27.3736000000	  55.3347000000	  31.4105000000
H	  26.6398000000	  55.1816000000	  33.0360000000
H	  30.3795000000	  53.4356000000	  34.1998000000
H	  29.9296000000	  51.9360000000	  33.6111000000
H	  26.5813000000	  57.4412000000	  32.9341000000
H	  28.0358000000	  57.3175000000	  33.8637000000
H	  30.1332000000	  51.9348000000	  30.8045000000
H	  31.7592000000	  52.5923000000	  30.5324000000
H	  27.0103000000	  59.4498766424	  31.6807000000
H	  28.2920000000	  59.4429466424	  32.8267000000
H	  31.6937000000	  50.1294000000	  30.6755000000
H	  32.6115000000	  50.9373000000	  31.9673000000
H	  31.0272000000	  50.1719000000	  32.4093000000
H	  29.9174000000	  59.5610866424	  31.1299000000
H	  28.6839000000	  59.5499766424	  29.7733000000
H	  28.7824000000	  60.7223566424	  30.9398000000
O	  31.0010000000	  55.2582000000	  30.5058000000
O	  28.4883000000	  56.1410000000	  28.8946000000
O	  32.3603000000	  55.8286000000	  32.9133000000
C	  30.7440000000	  55.0859000000	  29.0770000000
C	  31.4502000000	  56.5946000000	  30.7872000000
C	  29.2137000000	  54.8859000000	  28.8187000000
C	  31.5027000000	  56.8210000000	  32.2948000000
C	  27.1864000000	  56.0979000000	  28.4544000000
C	  32.5032000000	  55.9487000000	  34.2854000000
C	  26.4898000000	  57.3922000000	  28.8930000000
C	  33.1311000000	  54.6713000000	  34.8146000000
H	  31.2862000000	  55.7879000000	  28.4381000000
H	  31.0886000000	  54.0888000000	  28.8808000000
H	  32.4553000000	  56.6304000000	  30.3447000000
H	  30.8671000000	  57.3297000000	  30.2677000000
H	  29.1535000000	  54.4764000000	  27.8822000000
H	  28.8365000000	  54.1319000000	  29.4957000000
H	  31.7403000000	  57.7928000000	  32.5559000000
H	  30.4344000000	  56.7198000000	  32.5865000000
H	  27.1733000000	  55.8426000000	  27.3787000000
H	  26.7379000000	  55.2073000000	  28.9015000000
H	  33.0952000000	  56.8361000000	  34.5504000000
H	  31.5560000000	  56.1945000000	  34.7397000000
H	  26.4206000000	  57.4587000000	  29.9784000000
H	  26.9392000000	  58.4085000000	  28.7073000000
H	  25.5010000000	  57.4677000000	  28.5001000000
H	  32.4441000000	  53.8810000000	  34.7150000000
H	  34.0531000000	  54.3773000000	  34.2300000000
H	  33.3732000000	  54.6894000000	  35.8688000000
S	  34.1849000000	  53.6766000000	  31.2968000000
S	  34.8258000000	  53.6063000000	  29.2612000000
S	  34.9964000000	  55.4758000000	  28.2855000000
S	  34.2815000000	  55.2188000000	  23.0083000000
S	  33.6782000000	  56.9023000000	  21.8493000000
S	  33.0230000000	  56.4576000000	  19.8291000000
S	  35.3924000000	  55.4615000000	  24.7882000000
S	  34.0848000000	  55.3879000000	  26.4208000000
