20

Li	  47.3962000000	   6.2835400000	  56.5501000000
O	  47.2941000000	   9.6038800000	  55.0325000000
O	  47.7899000000	   8.0787900000	  56.6237000000
C	  46.0373000000	   9.0147300000	  55.3876000000
C	  46.4279000000	   8.4017600000	  56.7500000000
C	  48.2593000000	   8.9551500000	  55.6864000000
H	  45.3362000000	   9.8160300000	  55.3117000000
H	  45.6067000000	   8.3083800000	  54.6036000000
H	  46.2794000000	   9.1601500000	  57.4725000000
H	  45.7308000000	   7.6396700000	  57.0899000000
H	  48.7651000000	   8.4775600000	  54.8688000000
H	  48.8856000000	   9.7448400000	  56.0763000000
S	  46.6280000000	   5.5432300000	  54.7910000000
S	  44.7272000000	   4.5922100000	  54.9796000000
S	  43.4346000000	   5.8507900000	  55.9798000000
S	  45.6086000000	   5.9439600000	  60.4828446520
S	  47.5251000000	   6.1897400000	  59.5046246520
S	  48.0868000000	   4.8165300000	  58.0733000000
S	  44.1278000000	   6.8487300000	  59.4289746520
S	  43.3442000000	   5.4492900000	  58.0170000000
