70

Li	  20.9515000000	   3.0167600000	  42.9253000000
O	  22.7160000000	   0.7809333576	  39.7888000000
O	  21.7262000000	   1.7994200000	  41.6066000000
C	  23.6739000000	   0.8766333576	  40.8735000000
C	  22.7562000000	   0.8653333576	  42.0530000000
C	  21.6935000000	   1.5759600000	  40.2332000000
H	  24.1757000000	  -0.0759666424	  40.9339000000
H	  24.3620000000	   1.7428700000	  40.7068000000
H	  22.2983000000	  -0.0960666424	  42.0792000000
H	  23.2236000000	   1.1293700000	  42.9461000000
H	  21.7421000000	   2.5670800000	  39.6959000000
H	  20.6828000000	   1.2375600000	  40.0000000000
O	  20.1326000000	   5.6170200000	  45.9885000000
O	  19.5066000000	   3.1190700000	  44.2556000000
O	  20.5474000000	   6.3996100000	  49.3401000000
C	  18.9768000000	   5.2851500000	  45.1303000000
C	  19.7113000000	   5.7846200000	  47.3713000000
C	  18.5942000000	   3.8049600000	  45.1585000000
C	  21.0214000000	   5.9072700000	  48.1381000000
C	  19.1290000000	   1.7290500000	  44.1579000000
C	  21.5012000000	   6.6506100000	  50.3049000000
C	  20.2668000000	   0.9035333576	  44.7354000000
C	  20.8760000000	   7.4145600000	  51.4431000000
H	  18.0772000000	   5.8312600000	  45.3798000000
H	  19.0865000000	   5.5397900000	  44.0656000000
H	  19.1469000000	   6.7440400000	  47.5201000000
H	  19.0075000000	   5.0542900000	  47.7273000000
H	  18.6159000000	   3.4738400000	  46.1732000000
H	  17.5705000000	   3.6509200000	  44.7220000000
H	  21.4919000000	   4.9254200000	  48.2181000000
H	  21.7621000000	   6.5389200000	  47.6500000000
H	  18.2030000000	   1.4685600000	  44.6458000000
H	  18.9752000000	   1.3853600000	  43.0966000000
H	  21.9086000000	   5.7438600000	  50.7496000000
H	  22.2634000000	   7.2326500000	  49.7624000000
H	  21.0431000000	   1.0710600000	  44.1039000000
H	  20.5270000000	   1.2745300000	  45.7622000000
H	  20.1152000000	  -0.1778666424	  44.5874000000
H	  19.9910000000	   6.9416400000	  51.8778000000
H	  21.6550000000	   7.3976100000	  52.2143000000
H	  20.6830000000	   8.4255600000	  51.1392000000
O	  20.9603000000	   4.5875000000	  41.8814000000
O	  18.8220000000	   2.9576900000	  40.7850000000
O	  22.3852000000	   3.6320100000	  43.9528000000
C	  20.1821000000	   4.8488900000	  40.7195000000
C	  22.3359000000	   4.9640700000	  41.9602000000
C	  18.7714000000	   4.3000600000	  40.8882000000
C	  22.7541000000	   4.9445100000	  43.4194000000
C	  17.5631000000	   2.4374400000	  40.6925000000
C	  22.9711000000	   3.5057100000	  45.2881000000
C	  17.7109000000	   1.0336300000	  40.1255000000
C	  24.4352000000	   2.9642300000	  45.2311000000
H	  20.1454000000	   5.9395600000	  40.5804000000
H	  20.7038000000	   4.5997000000	  39.7768000000
H	  22.9391000000	   4.2874700000	  41.3857000000
H	  22.4462000000	   5.9532600000	  41.5538000000
H	  18.2976000000	   4.4942300000	  41.8778000000
H	  18.1705000000	   4.6789400000	  40.0567000000
H	  23.8287000000	   5.1176600000	  43.3685000000
H	  22.4387000000	   5.7757200000	  44.0395000000
H	  17.0653000000	   2.3924500000	  41.6141000000
H	  16.8995000000	   2.9944500000	  39.9955000000
H	  22.9067000000	   4.4478100000	  45.7692000000
H	  22.2533000000	   2.8632300000	  45.8486000000
H	  18.4192000000	   0.4437333576	  40.7695000000
H	  16.7902000000	   0.5056333576	  40.1981000000
H	  18.1869000000	   0.9547333576	  39.1452000000
H	  24.6029000000	   1.9545100000	  45.0059000000
H	  25.0854000000	   3.5295300000	  44.5536000000
H	  24.8664000000	   3.1446200000	  46.2606000000
