53

Li	   1.5093000000	   3.9345200000	   1.7440000000
O	   0.7767893287	   4.2643900000	   0.0068853480
O	   0.4309893287	   5.9967900000	  -1.3316146520
C	   1.6111700000	   4.0048500000	  -1.1596146520
C	   1.2730500000	   5.1989200000	  -2.1075146520
C	  -0.2110106713	   5.0985900000	  -0.4907146520
H	   2.6459800000	   4.0349400000	  -0.9410146520
H	   1.3846500000	   2.9827000000	  -1.5457146520
H	   2.1261200000	   5.7538200000	  -2.3646146520
H	   0.8098893287	   4.9115600000	  -3.0880146520
H	  -0.9544106713	   4.5201600000	  -0.9938146520
H	  -0.7482106713	   5.5803900000	   0.3382853480
O	   0.1980893287	   4.5966700000	   2.7910600000
O	  -1.1100106713	   5.8752800000	   4.1682400000
C	  -0.6124106713	   3.7502000000	   3.4982300000
C	  -1.7958106713	   4.5969600000	   3.9711000000
C	   0.1273893287	   5.7989300000	   3.5292000000
H	  -0.9668106713	   2.9021200000	   2.9091000000
H	  -0.0622106713	   3.3929300000	   4.3602100000
H	  -2.5566106713	   4.8059900000	   3.2312400000
H	  -2.2310106713	   4.2728100000	   4.8874700000
H	   0.8624893287	   5.9725400000	   4.3737200000
H	   0.2089893287	   6.6443300000	   2.8912000000
N	   0.4142893287	   0.0098333576	   2.5928500000
S	   1.0763700000	   1.0119300000	   1.5982800000
O	   0.2857893287	   1.4660200000	   0.5154853480
O	   1.7887700000	   2.0826600000	   2.2892300000
C	   2.3332700000	   0.0151333576	   0.9039853480
F	   3.0376600000	  -0.7354666424	   1.6810000000
F	   3.1527800000	   0.8250333576	   0.3261853480
F	   1.8497200000	  -0.8443666424	   0.0428853480
S	  -1.0262106713	  -0.5278666424	   2.6010700000
O	  -1.0553106713	  -1.9707666424	   2.4056400000
O	  -2.0119106713	   0.2789333576	   1.9726100000
C	  -1.4204106713	  -0.4217666424	   4.3906500000
F	  -1.1271106713	   0.7169333576	   4.9173100000
F	  -2.6553106713	  -0.6483666424	   4.7185200000
F	  -0.6341106713	  -1.3420666424	   4.9941500000
N	   5.3158300000	   4.5413700000	   2.6973600000
S	   4.5794100000	   4.5836500000	   1.3223300000
O	   4.6858900000	   3.3207100000	   0.6321853480
O	   3.2890000000	   5.1591500000	   1.4280200000
C	   5.4386200000	   5.7832400000	   0.2771853480
F	   4.7637500000	   5.9451300000	  -0.8745146520
F	   6.6729000000	   5.4882300000	  -0.0455146520
F	   5.4456200000	   6.9572300000	   0.8309853480
S	   4.7036400000	   4.3865900000	   4.1026800000
O	   5.6169100000	   3.8255700000	   5.0483500000
O	   3.3226700000	   4.0646000000	   4.1393400000
C	   4.7519900000	   6.1690300000	   4.5266900000
F	   4.0019800000	   6.8844400000	   3.7154500000
F	   4.1535700000	   6.4218300000	   5.6895200000
F	   5.9331600000	   6.5977100000	   4.5518100000
