49

Li	  31.2481000000	  33.6929000000	  56.5511000000
O	  33.1605000000	  35.9640000000	  53.6755000000
O	  31.7559000000	  34.9151000000	  55.0473000000
C	  32.2339000000	  35.2820000000	  52.7914000000
C	  31.1077000000	  34.9154000000	  53.7316000000
C	  33.1041000000	  35.1801000000	  54.8349000000
H	  31.8435000000	  35.9643000000	  52.0378000000
H	  32.7572000000	  34.4747000000	  52.2254000000
H	  30.3128000000	  35.6852000000	  53.6496000000
H	  30.7744000000	  33.9399000000	  53.3655000000
H	  33.7588000000	  34.3513000000	  54.7012000000
H	  33.5139000000	  35.7967000000	  55.6597000000
O	  29.1440000000	  34.8691000000	  56.1725000000
O	  30.0061000000	  32.2182000000	  56.0964000000
O	  26.5110000000	  36.3221000000	  56.4623000000
C	  28.2437000000	  33.8107000000	  56.2941000000
C	  28.8215000000	  36.0502000000	  56.9582000000
C	  28.8183000000	  32.6834000000	  55.4460000000
C	  27.7730000000	  37.0144000000	  56.4710000000
C	  30.4691000000	  30.9425000000	  55.6471000000
C	  25.4315000000	  37.1712000000	  56.1507000000
C	  31.8125000000	  30.6280000000	  56.3943000000
C	  24.1558000000	  36.4244000000	  55.9241000000
H	  28.1011000000	  33.5816000000	  57.3407000000
H	  27.2917000000	  34.1085000000	  55.8591000000
H	  28.4819000000	  35.7201000000	  57.9868000000
H	  29.7081000000	  36.7230000000	  57.0628000000
H	  28.1503000000	  31.8367000000	  55.3128000000
H	  28.9423000000	  33.0300000000	  54.3574000000
H	  27.6908000000	  37.8251000000	  57.1774000000
H	  28.0343000000	  37.4031000000	  55.5179000000
H	  29.7249000000	  30.1926000000	  55.7486000000
H	  30.5798000000	  31.1298000000	  54.5309000000
H	  25.2905000000	  37.8081000000	  57.0558000000
H	  25.6699000000	  37.8365000000	  55.3350000000
H	  32.1106000000	  29.5967000000	  56.2214000000
H	  32.6183000000	  31.2659000000	  56.1115000000
H	  31.7794000000	  30.6973000000	  57.4395000000
H	  23.5234000000	  37.1349000000	  55.4204000000
H	  24.3844000000	  35.5677000000	  55.2881000000
H	  23.8113000000	  35.9892000000	  56.8192000000
S	  32.7742000000	  34.1445000000	  58.0704000000
S	  31.1140000000	  33.4768000000	  59.1090776520
S	  31.5891000000	  31.8562000000	  60.4080046520
S	  34.7025000000	  34.7070000000	  61.8836446520
S	  35.0067000000	  35.8800000000	  63.6442446520
S	  35.6347000000	  37.8940000000	  63.1149846520
S	  34.3531000000	  32.7489000000	  62.2923846520
S	  32.3001000000	  32.4202000000	  62.3083346520
