46

Li	  48.3276000000	  31.3663000000	  12.6596000000
O	  48.9534000000	  30.8614000000	  11.0943000000
O	  47.6530000000	  29.7795000000	   8.5419600000
O	  48.7165000000	  33.1364000000	  12.5712000000
C	  48.3369000000	  29.5848000000	  10.8261000000
C	  48.3484000000	  32.0306000000	  10.5301000000
C	  48.5534000000	  29.0807000000	   9.3906000000
C	  48.9444000000	  33.3392000000	  11.1857000000
C	  47.5918000000	  29.2928000000	   7.2205400000
C	  48.9820000000	  34.2678000000	  13.4073000000
C	  46.8845000000	  30.3066000000	   6.3096400000
C	  50.4796000000	  34.3492000000	  13.7219000000
H	  48.7993000000	  28.8945000000	  11.4594000000
H	  47.2994000000	  29.5799000000	  11.0528000000
H	  48.4232000000	  31.9679000000	   9.4159600000
H	  47.3179000000	  32.1114000000	  10.7290000000
H	  49.6444000000	  29.1875000000	   9.1639300000
H	  48.2697000000	  28.0457000000	   9.3299300000
H	  50.0083000000	  33.2718000000	  11.0720000000
H	  48.5596000000	  34.2407000000	  10.8147000000
H	  48.5818000000	  29.1880000000	   6.7891200000
H	  47.1772000000	  28.2732000000	   7.2549000000
H	  48.7670000000	  35.2463000000	  12.9485000000
H	  48.4952000000	  34.1518000000	  14.3302000000
H	  45.9850000000	  30.7683000000	   6.7400600000
H	  47.5496000000	  31.1645000000	   6.1297700000
H	  46.7722000000	  29.8922000000	   5.4084900000
H	  50.6934000000	  35.0835000000	  14.4959000000
H	  50.8971000000	  33.3703000000	  14.0315000000
H	  51.0256000000	  34.6462000000	  12.8711000000
S	  47.1303000000	  27.2892000000	  23.2242000000
S	  47.9211000000	  25.5529000000	  22.3388000000
S	  48.1906000000	  25.5790000000	  20.2136000000
S	  50.3888000000	  29.0491000000	  17.2979000000
S	  49.0223000000	  29.8851000000	  15.9919000000
S	  49.5623000000	  30.2323000000	  13.9723000000
S	  50.1359000000	  26.9523000000	  17.5297000000
S	  50.0548000000	  26.3011000000	  19.6231000000
S	  40.0236000000	  39.3545000000	  12.1723000000
S	  40.5630000000	  38.4618000000	  10.3224000000
S	  40.9116000000	  36.3676000000	  10.5908000000
S	  43.6349000000	  33.9760000000	  13.3597000000
S	  45.6152000000	  33.2627000000	  13.6487000000
S	  46.0639000000	  31.3375000000	  13.0028000000
S	  43.8250000000	  35.8541000000	  12.4109000000
S	  42.9571000000	  35.8318000000	  10.4781000000
