53

Li	   3.1929700000	  56.9989000000	  16.8609000000
O	   1.4152000000	  56.8492000000	  16.9428000000
O	   2.4510700000	  54.4716000000	  16.2234000000
O	   2.8662700000	  59.3621866424	  16.7097000000
C	   0.4926893287	  55.8151000000	  16.6674000000
C	   0.7595893287	  58.0896000000	  16.8959000000
C	   1.2024700000	  54.5030000000	  16.9835000000
C	   1.6779700000	  59.1559466424	  17.4625000000
C	   3.4645200000	  53.6715000000	  16.7682000000
C	   3.6208800000	  60.4183366424	  17.2510000000
C	   4.6487500000	  53.6336000000	  15.9097000000
C	   5.1066000000	  60.1030266424	  17.1400000000
H	  -0.3820106713	  55.8434000000	  17.2526000000
H	   0.2865893287	  55.8268000000	  15.6346000000
H	   0.6128893287	  58.1644000000	  15.8008000000
H	  -0.2066106713	  58.1489000000	  17.4398000000
H	   1.4704000000	  54.3974000000	  18.0779000000
H	   0.5066893287	  53.6964000000	  16.7434000000
H	   1.0787800000	  60.0917766424	  17.4269000000
H	   1.8213900000	  58.9545000000	  18.5184000000
H	   3.6781100000	  54.3251000000	  17.6337000000
H	   3.0866500000	  52.7235000000	  17.0597000000
H	   3.4917800000	  61.2378866424	  16.6171000000
H	   3.4665600000	  60.6483866424	  18.3193000000
H	   5.4471400000	  53.0054000000	  16.3231000000
H	   4.3623900000	  53.1219000000	  14.9812000000
H	   5.0603100000	  54.6193000000	  15.7454000000
H	   5.7867600000	  60.9467866424	  17.0015000000
H	   5.4947500000	  59.6442766424	  18.0527000000
H	   5.3432600000	  59.6366966424	  16.2191000000
N	   4.3681500000	  56.2131000000	  12.7781000000
S	   5.6289700000	  56.2142000000	  11.8281000000
O	   5.3543100000	  56.6155000000	  10.4403000000
O	   6.8235400000	  56.6909000000	  12.4691000000
C	   6.0938200000	  54.4195000000	  11.6567000000
F	   5.2069700000	  53.5685000000	  11.1052000000
F	   6.3868600000	  53.8608000000	  12.8541000000
F	   7.1442900000	  54.2030000000	  10.8794000000
S	   3.9755200000	  57.3421000000	  13.7855000000
O	   4.7910200000	  58.4521000000	  13.6476000000
O	   3.6426500000	  56.8097000000	  15.0864000000
C	   2.2628400000	  57.7382000000	  13.1313000000
F	   1.7661300000	  58.9124000000	  13.5952000000
F	   2.3191800000	  57.9713000000	  11.8017000000
F	   1.2582300000	  56.8665000000	  13.3974000000
S	   4.4647900000	  56.8960000000	  18.5645000000
S	   6.2778100000	  55.8965000000	  18.0860000000
S	   7.6387400000	  57.3733000000	  17.6874000000
S	   6.7589300000	  60.3743966424	  21.3022000000
S	   4.6863500000	  60.1974866424	  20.9304000000
S	   3.6726200000	  58.4708000000	  21.8617000000
S	   8.0235400000	  60.2156266424	  19.5423000000
S	   8.6928700000	  58.2752000000	  19.2753000000
