38

Li	  32.9180000000	  37.6764000000	  19.4885000000
O	  34.5988000000	  38.8259000000	  22.6525000000
O	  33.3811000000	  37.6588000000	  21.2473000000
C	  35.2176000000	  37.5147000000	  22.6407000000
C	  34.1707000000	  36.7016000000	  21.9406000000
C	  33.2897000000	  38.6811000000	  22.1173000000
H	  36.1481000000	  37.5237000000	  22.0812000000
H	  35.3825000000	  37.1947000000	  23.7231000000
H	  34.6457000000	  35.9807000000	  21.2718000000
H	  33.6209000000	  36.1178000000	  22.6432000000
H	  32.5593000000	  38.4253000000	  22.9310000000
H	  33.0552000000	  39.5976000000	  21.6702000000
O	  35.9566000000	  40.1365000000	  18.5632000000
O	  33.8855000000	  39.1892000000	  18.9732000000
C	  35.2957000000	  40.3013000000	  17.3630000000
C	  33.8188000000	  39.8973000000	  17.7602000000
C	  35.0089000000	  39.8350000000	  19.5444000000
H	  35.1475000000	  41.2988000000	  16.9488000000
H	  35.8485000000	  39.6689000000	  16.6696000000
H	  33.2566000000	  40.7823000000	  17.9339000000
H	  33.4523000000	  39.2313000000	  16.9661000000
H	  35.5072000000	  39.0291000000	  20.0535000000
H	  34.6486000000	  40.6592000000	  20.2096000000
N	  29.3937000000	  40.0953000000	  19.9203000000
S	  30.4680000000	  41.1713000000	  20.3217000000
O	  31.1145000000	  40.8303000000	  21.5758000000
O	  31.3253000000	  41.7085000000	  19.2914000000
C	  29.4084000000	  42.5545000000	  20.7553000000
F	  28.4257000000	  42.2601000000	  21.6597000000
F	  28.7149000000	  43.0038000000	  19.7377000000
F	  30.0858000000	  43.5654000000	  21.2808000000
S	  29.7213000000	  38.6298000000	  19.4266000000
O	  29.0695000000	  37.6712000000	  20.2270000000
O	  31.1169000000	  38.4007000000	  19.0992000000
C	  28.8425000000	  38.5781000000	  17.8095000000
F	  29.2545000000	  39.6129000000	  17.0529000000
F	  29.0087000000	  37.4446000000	  17.1506000000
F	  27.5652000000	  38.7443000000	  17.9864000000
