56

Li	  53.0263000000	   9.3136500000	  50.1359000000
O	  53.0131000000	  10.9004000000	  46.9418000000
O	  53.8604000000	   9.6175400000	  48.5503000000
C	  54.2518000000	  11.5288000000	  47.2552000000
C	  54.9798000000	  10.4131000000	  48.1140000000
C	  53.0671000000	   9.6001700000	  47.4048000000
H	  54.6818000000	  12.0414000000	  46.4021000000
H	  54.1087000000	  12.3480000000	  48.0319000000
H	  55.6486000000	   9.7253200000	  47.5880000000
H	  55.6473000000	  10.7878000000	  48.8781000000
H	  52.0707000000	   9.2678300000	  47.6457000000
H	  53.4330000000	   8.9213900000	  46.6905000000
O	  54.1446000000	   8.1239000000	  50.9649000000
O	  51.6317000000	   8.0872200000	  50.4470000000
O	  55.5538000000	  10.4099000000	  51.2809000000
C	  53.4390000000	   7.4718100000	  52.0217000000
C	  55.6297000000	   8.0907700000	  51.0296000000
C	  52.0445000000	   8.0445800000	  51.7969000000
C	  56.1465000000	   9.2283200000	  51.8753000000
C	  50.8759000000	   7.0181700000	  50.0228000000
C	  56.1239000000	  11.6130000000	  51.7616000000
C	  50.9685000000	   6.8148600000	  48.5425000000
C	  55.3558000000	  12.8696000000	  51.1560000000
H	  53.5293000000	   6.4052700000	  51.9402000000
H	  53.8334000000	   7.7556800000	  53.0233000000
H	  56.0739000000	   7.1146200000	  51.2732000000
H	  55.9522000000	   8.3595100000	  49.9929000000
H	  51.2620000000	   7.5458700000	  52.3266000000
H	  52.1459000000	   9.0615800000	  52.0638000000
H	  55.8761000000	   9.0468800000	  52.9237000000
H	  57.2286000000	   9.1894600000	  51.8136000000
H	  51.0829000000	   6.0574500000	  50.5003000000
H	  49.8491000000	   7.3418200000	  50.3080000000
H	  55.8896000000	  11.6842000000	  52.8521000000
H	  57.1905000000	  11.7167000000	  51.4903000000
H	  50.2286000000	   7.4706800000	  47.9669000000
H	  52.0260000000	   6.9227800000	  48.1656000000
H	  50.6689000000	   5.7763300000	  48.3617000000
H	  55.4657000000	  12.9284000000	  50.1008000000
H	  54.3409000000	  12.7796000000	  51.4230000000
H	  55.7740000000	  13.8378000000	  51.4420000000
N	  50.3226000000	  11.4568000000	  51.7749000000
S	  48.8332000000	  11.0966000000	  52.2658000000
O	  47.8670000000	  12.0740000000	  51.9006000000
O	  48.5294000000	   9.7170700000	  52.0397000000
C	  49.1715000000	  11.3111000000	  54.0645000000
F	  49.1960000000	  12.6423000000	  54.3082000000
F	  50.2950000000	  10.7780000000	  54.5023000000
F	  48.2658000000	  10.6848000000	  54.7561000000
S	  50.7779000000	  11.5529000000	  50.2740000000
O	  49.7208000000	  11.5105000000	  49.3960000000
O	  51.9497000000	  10.8131000000	  50.0034000000
C	  51.3262000000	  13.2594000000	  50.2383000000
F	  50.2973000000	  14.0520000000	  50.3228000000
F	  52.1654000000	  13.5309000000	  51.2518000000
F	  51.9536000000	  13.4867000000	  49.1143000000
