60

Li	  13.0208000000	  32.6877000000	  56.9444000000
O	  13.0580000000	  34.7799000000	  56.6443000000
O	  10.4339000000	  33.4735000000	  56.7340000000
O	  15.0790000000	  32.9264000000	  56.8496000000
C	  11.9223000000	  35.2569000000	  55.9112000000
C	  14.3437000000	  34.9560000000	  55.8681000000
C	  10.6348000000	  34.9365000000	  56.6072000000
C	  15.4440000000	  34.2882000000	  56.7016000000
C	   9.3850800000	  33.1569000000	  57.6147000000
C	  16.0672000000	  32.2355000000	  57.5994000000
C	   8.1187700000	  32.7732000000	  56.8855000000
C	  15.4126000000	  30.9513000000	  57.8526000000
H	  12.1007000000	  36.2589000000	  55.7095000000
H	  11.8513000000	  34.7991000000	  54.9084000000
H	  14.3760000000	  34.3952000000	  54.9337000000
H	  14.6074000000	  35.9736000000	  55.5686000000
H	  10.7977000000	  35.3471000000	  57.5826000000
H	   9.7679800000	  35.4192000000	  56.1546000000
H	  16.3309000000	  34.4408000000	  56.1063000000
H	  15.5097000000	  34.7841000000	  57.6605000000
H	   9.7645300000	  32.2390000000	  57.9986000000
H	   9.2375000000	  33.8368000000	  58.4637000000
H	  16.8747000000	  32.0173000000	  56.8654000000
H	  16.3179000000	  32.6986000000	  58.5269000000
H	   7.3303500000	  32.5673000000	  57.6717000000
H	   7.6754100000	  33.6738000000	  56.4425000000
H	   8.2949000000	  32.0232000000	  56.1548000000
H	  14.4274000000	  31.0470000000	  58.2680000000
H	  15.3384000000	  30.4024000000	  56.9294000000
H	  16.0502000000	  30.3324000000	  58.5027000000
N	  13.9379000000	  33.7117000000	  61.3513046520
S	  12.7622000000	  33.5218000000	  60.3953046520
O	  11.7547000000	  34.5203000000	  60.5734446520
O	  13.0930000000	  33.0988000000	  59.0813156520
C	  12.0711000000	  32.0283000000	  61.1386146520
F	  11.9380000000	  32.2403000000	  62.4204046520
F	  12.8164000000	  30.9863000000	  60.8690446520
F	  10.8729000000	  31.8402000000	  60.6166846520
S	  15.4717000000	  33.6087000000	  61.0882546520
O	  16.0136000000	  34.5940000000	  60.1892246520
O	  15.8484000000	  32.2271000000	  61.0055946520
C	  16.1843000000	  34.0959000000	  62.7382446520
F	  17.5004000000	  34.0476000000	  62.7717346520
F	  15.9700000000	  35.3753000000	  63.1054546520
F	  15.7418000000	  33.3346000000	  63.7264346520
N	  12.0251000000	  29.5013000000	  55.3911000000
S	  12.3178000000	  30.5342000000	  54.2792000000
O	  11.4134000000	  30.4760000000	  53.1928000000
O	  12.9039000000	  31.7784000000	  54.6407000000
C	  13.7659000000	  29.7014000000	  53.4820000000
F	  13.4471000000	  28.4782000000	  53.1138000000
F	  14.7218000000	  29.5039000000	  54.3953000000
F	  14.2731000000	  30.3223000000	  52.4206000000
S	  12.1103000000	  29.7288000000	  56.9395000000
O	  12.1041000000	  31.1161000000	  57.3096000000
O	  12.9974000000	  28.8130000000	  57.5670000000
C	  10.4814000000	  29.2072000000	  57.4934000000
F	   9.5184500000	  29.9804000000	  56.8882000000
F	  10.2314000000	  27.9494000000	  57.2001000000
F	  10.2631000000	  29.1820000000	  58.7619000000
