35

Li	  45.3014000000	   8.5800300000	   2.8913800000
O	  41.1952000000	   8.4621100000	   3.4444200000
O	  43.3546000000	   8.3666800000	   3.5940600000
C	  41.3442000000	   7.1140900000	   3.8044400000
C	  42.9020000000	   7.1126300000	   3.9336700000
C	  42.3431000000	   8.9346900000	   2.8738400000
H	  40.7872000000	   6.8295300000	   4.6875700000
H	  41.1031000000	   6.5653700000	   2.8851900000
H	  43.2897000000	   6.6746600000	   4.8547600000
H	  43.2704000000	   6.5341100000	   3.1105700000
H	  42.2907000000	   8.6410500000	   1.8613000000
H	  42.4038000000	   9.9694600000	   3.0342500000
N	  48.4821000000	   6.7252600000	   5.4454700000
S	  47.9686000000	   7.0632900000	   3.9955300000
O	  48.4628000000	   6.1462800000	   2.9738700000
O	  46.5493000000	   7.4016600000	   3.9720800000
C	  48.8204000000	   8.6443900000	   3.5379800000
F	  48.3994000000	   9.6685800000	   4.2336300000
F	  48.5566000000	   9.0007500000	   2.2533500000
F	  50.1533000000	   8.5608900000	   3.6573800000
S	  47.8752000000	   5.5318100000	   6.3125900000
O	  46.6546000000	   4.9544300000	   5.7916800000
O	  47.9464000000	   5.7064800000	   7.8076500000
C	  49.1370000000	   4.2040100000	   5.9219500000
F	  48.8333000000	   2.9791600000	   6.3188600000
F	  49.4477000000	   4.0822100000	   4.6480100000
F	  50.2608000000	   4.4958100000	   6.5142300000
S	  45.6100000000	  10.6354000000	   4.1487400000
S	  45.1333000000	  12.7337000000	   3.6232400000
S	  43.0176000000	  12.7392000000	   3.0085000000
S	  44.3262000000	  10.0624000000	  -0.7121146520
S	  45.5924000000	   9.3380400000	   0.7109853480
S	  45.3157000000	   7.2683500000	   1.2568500000
S	  42.5154000000	  10.7973000000	   0.0851853480
S	  42.7759000000	  12.6766000000	   0.8904853480
