56

Li	  49.7332000000	  47.8893000000	  36.7961000000
O	  50.5403000000	  50.0270000000	  33.1672000000
O	  50.0298000000	  48.4634000000	  34.7605000000
C	  50.0112000000	  48.8930000000	  32.4154000000
C	  49.9473000000	  47.8524000000	  33.4868000000
C	  50.0728000000	  49.8704000000	  34.4679000000
H	  49.0046000000	  49.1437000000	  32.0526000000
H	  50.5792000000	  48.6697000000	  31.5819000000
H	  48.9641000000	  47.4156000000	  33.5144000000
H	  50.6500000000	  47.0839000000	  33.3313000000
H	  50.6430000000	  50.4267000000	  35.1215000000
H	  49.0508000000	  50.3037000000	  34.4765000000
O	  50.2604000000	  49.3341000000	  37.6545000000
O	  51.6408000000	  47.1082000000	  37.0201000000
O	  47.6697000000	  48.9719000000	  37.0253000000
C	  51.5007000000	  49.2199000000	  38.3135000000
C	  49.2447000000	  49.9081000000	  38.5098000000
C	  52.3566000000	  48.3131000000	  37.3957000000
C	  48.0293000000	  50.1257000000	  37.7152000000
C	  52.4194000000	  46.0847000000	  36.3880000000
C	  46.7021000000	  49.0812000000	  35.9946000000
C	  51.5789000000	  44.9154000000	  35.7673000000
C	  46.3584000000	  47.6181000000	  35.5182000000
H	  51.9582000000	  50.2413000000	  38.4116000000
H	  51.4276000000	  48.7635000000	  39.3740000000
H	  49.0270000000	  49.1964000000	  39.3092000000
H	  49.6278000000	  50.7336000000	  39.0949000000
H	  52.6681000000	  48.8048000000	  36.4614000000
H	  53.3404000000	  48.0629000000	  37.8120000000
H	  47.1471000000	  50.3471000000	  38.4340000000
H	  48.1293000000	  50.9910000000	  37.0283000000
H	  52.9590000000	  46.5986000000	  35.5944000000
H	  53.0659000000	  45.6544000000	  37.1735000000
H	  45.7738000000	  49.5921000000	  36.4554000000
H	  46.9461000000	  49.6213000000	  35.1526000000
H	  51.0114000000	  45.2319000000	  34.8646000000
H	  52.2313000000	  44.1209000000	  35.4698000000
H	  50.8403000000	  44.6252000000	  36.5350000000
H	  47.2601000000	  47.0857000000	  35.2817000000
H	  45.8005000000	  46.9880000000	  36.2699000000
H	  45.7400000000	  47.6747000000	  34.6255000000
N	  48.8082000000	  45.4314000000	  39.9688000000
S	  47.9978000000	  45.7301000000	  38.6279000000
O	  46.7638000000	  46.3714000000	  38.8376000000
O	  48.8345000000	  46.2315000000	  37.5744000000
C	  47.6725000000	  44.0469000000	  38.0674000000
F	  48.8277000000	  43.4140000000	  37.7497000000
F	  46.8063000000	  44.0573000000	  37.0472000000
F	  47.0848000000	  43.3788000000	  38.9448000000
S	  48.8760000000	  46.2140000000	  41.2685000000
O	  48.0244000000	  45.5461000000	  42.1728000000
O	  48.6960000000	  47.6214000000	  41.1875000000
C	  50.6298000000	  45.9868000000	  41.7838000000
F	  51.3978000000	  46.4546000000	  40.8590000000
F	  50.8568000000	  46.6982000000	  42.9010000000
F	  50.9620000000	  44.7424000000	  42.0203000000
