45

Li	  45.8936000000	  16.7711000000	   9.5003100000
O	  46.5060000000	  18.4726000000	   9.2456600000
O	  47.7612000000	  17.3002000000	   7.0931500000
O	  44.2675000000	  17.3559000000	  10.3486000000
C	  47.2074000000	  19.2119000000	   8.2449600000
C	  45.5631000000	  19.3288000000	   9.7914000000
C	  48.3336000000	  18.3449000000	   7.8048000000
C	  44.7284000000	  18.5845000000	  10.8949000000
C	  48.6118000000	  16.1696000000	   6.9676300000
C	  43.1974000000	  16.8150000000	  11.0716000000
C	  47.8100000000	  14.9652000000	   6.4058400000
C	  43.7129000000	  16.2746000000	  12.3991000000
H	  46.5486000000	  19.5306000000	   7.4219600000
H	  47.6881000000	  20.1332000000	   8.6180000000
H	  46.1532000000	  20.0615000000	  10.3474000000
H	  44.8546000000	  19.7327000000	   9.1062100000
H	  48.9765000000	  19.0322000000	   7.1822900000
H	  48.8667000000	  18.1330000000	   8.7493500000
H	  45.3698000000	  18.3284000000	  11.7524000000
H	  43.8997000000	  19.1492000000	  11.3215000000
H	  49.3696000000	  16.3574000000	   6.1660700000
H	  49.0328000000	  15.8658000000	   7.8991800000
H	  42.3005000000	  17.4724000000	  11.0424000000
H	  42.8987000000	  15.9605000000	  10.4334000000
H	  47.4160000000	  15.1312000000	   5.4198500000
H	  48.3579000000	  14.0407000000	   6.4422000000
H	  46.9553000000	  14.7234000000	   7.0311300000
H	  42.8318000000	  15.7229000000	  12.8287000000
H	  44.5223000000	  15.5400000000	  12.2518000000
H	  43.9295000000	  17.0403000000	  13.1270000000
N	  46.4795000000	  13.9963000000	  11.0011000000
S	  47.3472000000	  15.1999000000	  11.5005000000
O	  47.2127000000	  16.2848000000	  10.5935000000
O	  47.1716000000	  15.4496000000	  12.9001000000
C	  49.1079000000	  14.6458000000	  11.2267000000
F	  49.4125000000	  14.2810000000	   9.9573300000
F	  49.4321000000	  13.5737000000	  11.9711000000
F	  49.9876000000	  15.6091000000	  11.4903000000
S	  45.7086000000	  13.7801000000	   9.6518800000
O	  46.3035000000	  12.7341000000	   8.8723100000
O	  45.2352000000	  15.0058000000	   9.0675400000
C	  44.2317000000	  12.8772000000	  10.2230000000
F	  43.3326000000	  12.7894000000	   9.2788300000
F	  44.5440000000	  11.7106000000	  10.7539000000
F	  43.5848000000	  13.5434000000	  11.2035000000
