46

Li	  26.0180000000	   1.6719600000	  17.1746000000
O	  29.1066000000	   1.3892900000	  19.8224000000
O	  27.3407000000	   1.3753500000	  18.4037000000
C	  29.0210000000	   0.0925333576	  19.2743000000
C	  27.7588000000	   0.0432333576	  18.5218000000
C	  27.8198000000	   1.9464300000	  19.5671000000
H	  29.9100000000	  -0.1444666424	  18.6600000000
H	  29.0916000000	  -0.5950666424	  20.0342000000
H	  27.7136000000	  -0.3328666424	  17.4679000000
H	  26.9412000000	  -0.4258666424	  19.0338000000
H	  27.1610000000	   1.8190000000	  20.4204000000
H	  27.9292000000	   2.9519700000	  19.3895000000
O	  21.8420000000	   0.6446333576	  17.7412000000
O	  24.0156000000	   1.0852200000	  17.2611000000
C	  21.9888000000	   1.0213100000	  16.3611000000
C	  23.1080000000	   1.9317900000	  16.5934000000
C	  23.1776000000	   0.3380333576	  17.9979000000
H	  22.2132000000	   0.2223333576	  15.6839000000
H	  21.1201000000	   1.5071700000	  16.0329000000
H	  23.5248000000	   2.3708100000	  15.6888000000
H	  22.7692000000	   2.8112900000	  17.2225000000
H	  23.2796000000	   0.6650333576	  19.0545000000
H	  23.2395000000	  -0.6672666424	  17.7858000000
N	  23.7659000000	   4.3258800000	  19.9353000000
S	  23.8048000000	   3.2418300000	  21.0881000000
O	  22.8522000000	   2.2344400000	  20.8855000000
O	  25.1255000000	   2.8189100000	  21.5546000000
C	  23.1538000000	   4.2061900000	  22.5043000000
F	  24.1070000000	   4.9587000000	  23.0635000000
F	  22.5767000000	   3.4303400000	  23.3780000000
F	  22.1145000000	   4.9220900000	  22.0254000000
S	  25.0121000000	   4.5749800000	  18.9888000000
O	  25.4751000000	   3.3631700000	  18.3734000000
O	  25.8771000000	   5.4922800000	  19.6422000000
C	  24.1910000000	   5.6630100000	  17.7171000000
F	  24.8377000000	   5.7600700000	  16.6032000000
F	  23.0362000000	   5.0851900000	  17.4952000000
F	  23.7759000000	   6.8724500000	  18.1159000000
S	  24.5542000000	  -2.9750666424	   7.5505000000
S	  24.6225000000	  -2.8509666424	   9.6979900000
S	  23.0427000000	  -1.8004666424	  10.4820000000
S	  26.0378000000	   0.6319333576	  13.1640000000
S	  26.5137000000	   0.9476333576	  15.1886000000
S	  27.1700000000	   2.8687300000	  15.6713000000
S	  23.9396000000	   0.5012333576	  13.0793000000
S	  23.3748000000	   0.2726333576	  11.0028000000
