57

Li	   4.6057700000	   3.4038000000	  10.2349000000
O	   5.1671600000	   5.0638800000	   9.1036800000
O	   6.3588500000	   7.0105500000	   8.6692000000
C	   4.2926300000	   5.9030800000	   8.3964200000
C	   5.2569300000	   6.9080900000	   7.8143100000
C	   6.4282300000	   5.7602300000	   9.1283900000
H	   3.8164400000	   5.3033600000	   7.6400900000
H	   3.5139600000	   6.3836300000	   8.9827100000
H	   5.6916300000	   6.4642900000	   6.8769000000
H	   4.8063700000	   7.9463700000	   7.5002200000
H	   6.7696700000	   5.7191300000	  10.1709000000
H	   7.2039600000	   5.1783600000	   8.6608600000
N	   7.7765000000	   0.9604333576	   8.4706400000
S	   6.2853500000	   0.8606333576	   8.7802500000
O	   5.8291600000	  -0.4233666424	   9.2367400000
O	   5.6072100000	   2.0928000000	   9.1980000000
C	   5.7859600000	   0.9059333576	   6.9822500000
F	   6.0926500000	   2.0459600000	   6.4164800000
F	   4.4950200000	   0.7441333576	   6.8343300000
F	   6.3896600000	  -0.0199666424	   6.3019400000
S	   8.7783300000	   2.1299900000	   8.6755900000
O	   8.2119700000	   3.2380200000	   9.4099800000
O	   9.5097200000	   2.4765000000	   7.4792300000
C	  10.0634000000	   1.3859100000	   9.8107200000
F	   9.5002900000	   0.8456333576	  10.8553000000
F	  10.8057000000	   0.5186333576	   9.2123900000
F	  10.8643000000	   2.2840200000	  10.3835000000
N	   0.7613893287	   1.5425200000	  10.0489000000
S	   2.1788200000	   1.8232600000	   9.4168300000
O	   2.8480400000	   3.0134300000	   9.9691400000
O	   2.9473900000	   0.6601333576	   9.1031300000
C	   1.6229000000	   2.4750400000	   7.8465100000
F	   0.7698893287	   3.4709800000	   7.8783800000
F	   1.0413000000	   1.5426200000	   7.0993100000
F	   2.6147700000	   2.8089500000	   7.0921900000
S	   0.0748893287	   0.1730333576	  10.1091000000
O	   1.0377800000	  -0.9056666424	  10.0207000000
O	  -1.1598106713	  -0.0152666424	   9.4143600000
C	  -0.5345106713	   0.1148333576	  11.7805000000
F	  -1.4604106713	   0.9625950000	  12.0148000000
F	  -0.9453106713	  -1.0848666424	  12.1478000000
F	   0.3512893287	   0.2754333576	  12.7305000000
N	   4.6670800000	   1.5483900000	  13.6254000000
S	   5.4164300000	   0.6174333576	  12.6277000000
O	   4.4807100000	   0.0612333576	  11.6581000000
O	   6.6900800000	   0.9966880000	  12.1010000000
C	   5.7896100000	  -0.8877666424	  13.6308000000
F	   6.4326600000	  -1.7263666424	  12.8781000000
F	   4.6770900000	  -1.4610666424	  14.0615000000
F	   6.6148500000	  -0.6189666424	  14.6867000000
S	   4.6116300000	   3.0859000000	  13.5162000000
O	   4.9868200000	   3.5673400000	  12.1815000000
O	   5.1672800000	   3.7508400000	  14.6882000000
C	   2.8470500000	   3.4818700000	  13.6589000000
F	   2.5764500000	   3.9388100000	  14.8461000000
F	   2.3312800000	   4.3850600000	  12.7933000000
F	   2.2260900000	   2.3428900000	  13.4910000000
