53

Li	  14.6678000000	  15.5137000000	  11.2023000000
O	  15.1243000000	  17.3268000000	  11.3619000000
O	  14.9831000000	  19.2800000000	  10.3103000000
C	  16.3021000000	  18.0522000000	  11.6789000000
C	  16.3786000000	  19.0505000000	  10.5158000000
C	  14.2581000000	  18.3428000000	  10.9899000000
H	  16.1046000000	  18.6244000000	  12.5719000000
H	  17.1686000000	  17.4594000000	  11.8358000000
H	  16.9832000000	  19.9568000000	  10.7208000000
H	  16.7339000000	  18.5629000000	   9.6712500000
H	  13.4237000000	  17.8938000000	  10.4532000000
H	  13.7252000000	  18.7779000000	  11.8450000000
O	  14.4179000000	  16.2070000000	   7.4486000000
O	  14.2477000000	  15.3267000000	   9.5385500000
C	  13.2093000000	  15.5354000000	   7.4241100000
C	  12.9716000000	  15.2518000000	   8.9212300000
C	  15.1719000000	  15.6884000000	   8.5561400000
H	  12.4241000000	  16.0298000000	   6.8295500000
H	  13.5109000000	  14.5843000000	   6.9464800000
H	  12.3094000000	  15.9847000000	   9.3208100000
H	  12.4965000000	  14.3303000000	   9.2162300000
H	  15.8056000000	  14.9209000000	   8.1869200000
H	  15.8397000000	  16.4497000000	   9.0257200000
S	  11.5732000000	  15.0930000000	  12.1921000000
O	  10.9283000000	  13.9758000000	  11.4476000000
O	  13.0403000000	  15.3629000000	  12.1372000000
C	  10.7785000000	  16.6509000000	  11.7395000000
C	  11.0865000000	  15.0062000000	  13.9840000000
C	  10.7859000000	  17.3880000000	  13.0620000000
C	  10.4281000000	  16.3748000000	  14.1941000000
H	  11.3674000000	  17.0386000000	  10.8900000000
H	   9.7605500000	  16.4655000000	  11.3436000000
H	  10.3693000000	  14.2166000000	  14.1827000000
H	  11.9906000000	  14.6832000000	  14.5959000000
H	  11.7422000000	  17.7911000000	  13.2098000000
H	  10.0527000000	  18.1962000000	  13.0465000000
H	  10.6852000000	  16.9101000000	  15.1099000000
H	   9.3319500000	  16.3069000000	  14.3328000000
S	  16.5818000000	  13.8447000000	  13.2682000000
O	  16.1468000000	  14.8256000000	  12.2630000000
O	  15.6637000000	  13.2491000000	  14.2061000000
C	  17.3501000000	  12.4739000000	  12.4589000000
C	  18.0036000000	  14.3537000000	  14.2421000000
C	  18.4632000000	  12.0611000000	  13.4382000000
C	  18.8249000000	  13.0938000000	  14.3631000000
H	  16.6993000000	  11.6841000000	  12.1447000000
H	  17.7637000000	  12.7464000000	  11.4511000000
H	  18.5795000000	  15.1720000000	  13.8078000000
H	  17.6929000000	  14.6143000000	  15.2884000000
H	  18.1197000000	  11.1835000000	  13.9645000000
H	  19.3831000000	  11.8030000000	  12.8935000000
H	  18.6821000000	  12.6155000000	  15.3006000000
H	  19.8797000000	  13.2349000000	  14.3383000000
