57

Li	  12.8403000000	   9.9096900000	  58.8339000000
O	  14.8976000000	   8.0360500000	  57.2351000000
O	  14.6772000000	   9.2847800000	  59.0534000000
C	  14.2228000000	   7.3019200000	  58.2939000000
C	  14.6226000000	   7.9848600000	  59.5823942032
C	  15.4065000000	   9.1652700000	  57.8466000000
H	  13.1837000000	   7.4811900000	  58.0513000000
H	  14.3751000000	   6.2155100000	  58.3377000000
H	  13.8806000000	   7.9508700000	  60.4068942032
H	  15.6265000000	   7.6962800000	  59.8488942032
H	  16.4867000000	   9.0598200000	  58.0477000000
H	  15.2108000000	  10.0725000000	  57.2389000000
S	  13.1291000000	  12.7676000000	  60.2800542032
O	  12.3873000000	  13.2640000000	  61.4801742032
O	  13.2140000000	  11.3189000000	  60.0702942032
C	  12.4770000000	  13.5761000000	  58.8129000000
C	  14.7736000000	  13.5238000000	  60.0981842032
C	  13.5498000000	  14.2181000000	  58.0761000000
C	  14.7063000000	  14.5065000000	  58.9796000000
H	  11.8915000000	  12.8656000000	  58.1761000000
H	  11.8256000000	  14.3374000000	  59.1949000000
H	  15.1543000000	  13.8627000000	  61.0324142032
H	  15.5487000000	  12.7509000000	  59.8015642032
H	  13.7784000000	  13.5267000000	  57.2697000000
H	  13.1729000000	  15.0366000000	  57.5432000000
H	  15.6710000000	  14.4989000000	  58.5123000000
H	  14.7193000000	  15.4914000000	  59.3804712032
S	  12.1290000000	  10.8247000000	  55.8212000000
O	  12.1466000000	  12.2400000000	  55.4338000000
O	  12.5608000000	  10.4303000000	  57.1428000000
C	  10.4995000000	  10.1663000000	  55.5162000000
C	  12.9840000000	   9.8399900000	  54.6572000000
C	  10.6927000000	   8.7238600000	  54.9927000000
C	  12.0426000000	   8.5886700000	  54.2489000000
H	  10.0515000000	  10.3327000000	  56.4683000000
H	  10.0675000000	  10.8490000000	  54.8530000000
H	  13.3082000000	  10.3530000000	  53.7839000000
H	  13.8528000000	   9.4943400000	  55.1150000000
H	  10.8668000000	   8.1450000000	  55.8739000000
H	   9.8284100000	   8.3709500000	  54.4575000000
H	  12.6210000000	   7.6478200000	  54.3861000000
H	  11.6861000000	   8.6890500000	  53.2196000000
S	   9.8513300000	  10.1384000000	  59.5328242032
O	  11.0850000000	   9.3458500000	  59.6358242032
O	   9.7961600000	  11.1743000000	  58.5078000000
C	   8.3648400000	   9.2366600000	  59.4357562032
C	   9.5739100000	  11.0063000000	  61.0272842032
C	   7.6965800000	   9.2803700000	  60.8625242032
C	   8.5346500000	  10.1643000000	  61.8426942032
H	   7.7796900000	   9.6586400000	  58.6083000000
H	   8.6979200000	   8.2236400000	  59.1308000000
H	  10.4905000000	  11.2568000000	  61.6096342032
H	   9.0912000000	  11.9109000000	  60.6896742032
H	   6.6830500000	   9.6720500000	  60.6878742032
H	   7.6386000000	   8.2853800000	  61.1267142032
H	   7.8477700000	  10.7880000000	  62.4101842032
H	   9.1077000000	   9.6409700000	  62.6204142032
