39

Li	  31.3186000000	   5.4576000000	  54.7845000000
S	  30.0535000000	   2.6099100000	  54.2760000000
O	  30.4984000000	   3.8200500000	  54.9946000000
O	  30.1268000000	   1.3097000000	  54.8581000000
C	  28.4075000000	   2.8050100000	  53.5017000000
C	  30.9869000000	   2.5084700000	  52.7121000000
C	  28.6072000000	   2.4063300000	  51.9934000000
C	  30.0296000000	   1.8946900000	  51.7412000000
H	  27.6980000000	   2.1309400000	  53.9807000000
H	  28.0913000000	   3.8537300000	  53.6436000000
H	  31.4558000000	   3.4169000000	  52.4176000000
H	  31.7804000000	   1.8442900000	  52.9410000000
H	  27.9646000000	   1.6063800000	  51.7181000000
H	  28.3099000000	   3.1098200000	  51.2539000000
H	  29.9488000000	   0.7888400000	  51.9708000000
H	  30.3911000000	   2.1172600000	  50.7154000000
S	  34.4136000000	   5.7244700000	  54.1545000000
O	  35.2111000000	   4.5733600000	  54.5652000000
O	  32.9412000000	   5.6306800000	  53.8943000000
C	  34.7552000000	   7.1141700000	  55.2534000000
C	  35.1878000000	   6.4867100000	  52.7114000000
C	  36.1728000000	   7.5484900000	  54.7957000000
C	  36.2161000000	   7.5034500000	  53.2731000000
H	  34.0717000000	   7.9271500000	  55.1734000000
H	  34.7397000000	   6.8464300000	  56.2545000000
H	  35.6288000000	   5.6582400000	  52.1889000000
H	  34.3906000000	   7.0129200000	  52.1201000000
H	  36.4536000000	   8.5270400000	  55.1621000000
H	  36.7907000000	   6.7515400000	  55.1893000000
H	  36.0852000000	   8.5137800000	  52.8586000000
H	  37.1859000000	   7.1777200000	  53.0323000000
S	  33.1557000000	   5.4083100000	  46.3200000000
S	  33.5738000000	   4.8135400000	  48.2948000000
S	  31.7741000000	   4.5132600000	  49.4004000000
S	  30.0748000000	   7.6060100000	  53.4973000000
S	  29.7333000000	   6.7537400000	  55.4064000000
S	  31.3479000000	   6.4322700000	  56.6599000000
S	  29.7458000000	   6.1730300000	  51.8864000000
S	  31.4438000000	   6.1247200000	  50.7125000000
