61

Li	   9.9567200000	  20.7225000000	  49.0989000000
S	   9.6103900000	  22.0087000000	  46.4105000000
O	   9.7179600000	  23.4866000000	  46.4283000000
O	   9.0921900000	  21.2493000000	  47.5585000000
C	   8.6345300000	  21.4782000000	  45.0250000000
C	  11.0948000000	  21.1522000000	  45.8416000000
C	   9.0965800000	  19.9951000000	  44.8577000000
C	  10.5698000000	  19.8873000000	  45.0262000000
H	   7.5659200000	  21.6119000000	  45.2334000000
H	   8.8932200000	  22.0875000000	  44.1117000000
H	  11.6156000000	  21.9750000000	  45.3044000000
H	  11.7539000000	  20.9016000000	  46.6857000000
H	   8.6002200000	  19.3001000000	  45.5761000000
H	   8.8532000000	  19.6775000000	  43.8866000000
H	  10.9511000000	  19.0039000000	  45.4899000000
H	  11.0735000000	  19.9795000000	  44.0185000000
S	  10.3007000000	  23.5626000000	  50.6679000000
O	  10.2057000000	  22.0964000000	  50.4710000000
O	   9.8763500000	  24.4880000000	  49.5771000000
C	   9.5178600000	  23.9796000000	  52.2227000000
C	  11.9725000000	  24.0834000000	  51.1409000000
C	  10.4886000000	  24.9558000000	  52.9364000000
C	  11.8613000000	  24.4987000000	  52.6511000000
H	   8.5768700000	  24.4759000000	  51.8612000000
H	   9.3382900000	  23.0125000000	  52.7382000000
H	  12.6506000000	  23.2440000000	  51.0690000000
H	  12.3584000000	  24.9044000000	  50.5142000000
H	  10.3236000000	  25.9357000000	  52.4673000000
H	  10.2451000000	  24.7893000000	  54.0300000000
H	  12.5986000000	  25.2721000000	  52.7918000000
H	  12.1520000000	  23.7216000000	  53.2066000000
S	  10.9384000000	  17.7887000000	  48.2129000000
O	  12.0661000000	  17.1336000000	  47.4846000000
O	  10.8145000000	  19.2410000000	  48.4443000000
C	   9.3381400000	  17.2269000000	  47.5859000000
C	  10.8729000000	  16.9792000000	  49.8336000000
C	   8.9093000000	  16.1024000000	  48.5451000000
C	   9.5423600000	  16.2510000000	  49.9454000000
H	   8.5825300000	  18.0404000000	  47.5475000000
H	   9.3788000000	  16.8569000000	  46.5631000000
H	  11.6989000000	  16.2681000000	  49.8197000000
H	  11.0366000000	  17.7451000000	  50.6568000000
H	   7.8179900000	  16.1519000000	  48.6324000000
H	   9.2009400000	  15.1134000000	  48.2174000000
H	   8.8038400000	  16.7170000000	  50.6802000000
H	   9.7291600000	  15.3094000000	  50.3249000000
N	   6.1340700000	  19.5454000000	  49.8345000000
S	   5.7703000000	  19.5775000000	  48.3242000000
O	   6.1844000000	  20.7862000000	  47.7188000000
O	   5.9847000000	  18.3503000000	  47.6025000000
C	   3.9411400000	  19.7726000000	  48.3238000000
F	   3.6090200000	  21.0870000000	  48.2982000000
F	   3.2936200000	  19.1805000000	  49.3031000000
F	   3.5455400000	  19.2550000000	  47.1723000000
S	   7.3318600000	  20.2384000000	  50.5689000000
O	   7.2945400000	  21.6253000000	  50.8533000000
O	   8.5780300000	  19.6252000000	  50.1654000000
C	   6.9218900000	  19.5728000000	  52.2159000000
F	   5.9258500000	  20.0937000000	  52.8279000000
F	   6.7339800000	  18.2493000000	  52.1113000000
F	   7.9772000000	  19.7679000000	  53.0874000000
