46

Li	  28.3821000000	  28.8369000000	  23.4526000000
S	  31.5109000000	  29.0367000000	  23.5039000000
O	  32.4329000000	  27.8987000000	  23.2727000000
O	  30.1341000000	  28.9473000000	  23.1293000000
C	  31.6903000000	  29.6303000000	  25.2546000000
C	  32.2961000000	  30.5467000000	  22.7939000000
C	  32.1162000000	  31.0579000000	  25.1282000000
C	  33.0715000000	  31.2958000000	  23.9253000000
H	  30.6832000000	  29.5414000000	  25.7250000000
H	  32.4214000000	  29.0659000000	  25.8181000000
H	  32.9515000000	  30.2076000000	  21.9937000000
H	  31.4804000000	  31.1656000000	  22.3538000000
H	  31.2157000000	  31.6048000000	  24.8020000000
H	  32.4018000000	  31.4231000000	  26.1748000000
H	  33.0980000000	  32.4227000000	  23.8856000000
H	  34.0832000000	  30.8791000000	  24.0397000000
S	  25.7391000000	  28.0198000000	  21.8498000000
O	  25.0903000000	  26.7179000000	  22.0557000000
O	  26.8454000000	  28.4392000000	  22.7242000000
C	  26.2657000000	  28.2229000000	  20.0910000000
C	  24.3925000000	  29.2095000000	  21.8015000000
C	  25.3685000000	  29.3190000000	  19.3941000000
C	  24.0495000000	  29.4423000000	  20.2748000000
H	  27.2744000000	  28.6218000000	  19.9929000000
H	  26.2922000000	  27.2208000000	  19.5939000000
H	  23.5366000000	  28.8872000000	  22.3362000000
H	  24.7735000000	  30.1601000000	  22.3099000000
H	  25.9063000000	  30.2907000000	  19.4969000000
H	  25.0967000000	  29.1688000000	  18.3508000000
H	  23.5175000000	  30.3836000000	  20.0404000000
H	  23.3613000000	  28.7243000000	  19.9884000000
S	  27.6461000000	  29.9704000000	  26.4595000000
O	  28.6638000000	  30.6632000000	  27.2622000000
O	  27.9514000000	  29.5114000000	  25.1171000000
C	  27.0264000000	  28.5673000000	  27.3851000000
C	  26.0837000000	  30.8684000000	  26.5053000000
C	  25.5113000000	  28.4114000000	  27.0082000000
C	  24.9902000000	  29.7985000000	  26.7870000000
H	  27.6086000000	  27.6998000000	  27.3442000000
H	  27.1646000000	  28.8552000000	  28.3729000000
H	  26.1940000000	  31.6491000000	  27.2490000000
H	  26.0156000000	  31.3693000000	  25.5231000000
H	  25.3762000000	  27.6789000000	  26.2105000000
H	  24.8340000000	  28.0393000000	  27.8270000000
H	  24.2421000000	  29.8299000000	  25.9722000000
H	  24.5762000000	  30.1848000000	  27.6812000000
