46

Li	  38.1799000000	  12.7940000000	  22.6262000000
O	  39.4727000000	  12.7208000000	  24.1172000000
O	  40.7724000000	  11.8772000000	  25.7754000000
C	  40.3950000000	  13.7305000000	  24.4556000000
C	  40.8967000000	  13.2435000000	  25.8433000000
C	  39.6203000000	  11.7552000000	  25.0240000000
H	  41.1034000000	  13.8496000000	  23.6592000000
H	  40.0340000000	  14.7355000000	  24.4485000000
H	  41.9587000000	  13.4309000000	  26.1005000000
H	  40.3402000000	  13.7117000000	  26.6285000000
H	  38.8156000000	  11.8975000000	  25.7622000000
H	  39.5244000000	  10.7829000000	  24.6299000000
O	  34.5149000000	  13.6524000000	  23.8255000000
O	  36.7666000000	  13.0563000000	  23.8023000000
C	  35.1912000000	  14.8238000000	  23.9615000000
C	  36.5976000000	  14.3040000000	  24.4393000000
C	  35.5098000000	  12.8559000000	  23.2308000000
H	  35.2389000000	  15.2961000000	  22.9755000000
H	  34.8310000000	  15.5635000000	  24.7088000000
H	  37.4064000000	  15.0280000000	  24.2695000000
H	  36.5937000000	  14.1479000000	  25.5775000000
H	  35.1634000000	  11.8811000000	  23.1948000000
H	  35.5535000000	  13.2082000000	  22.1999000000
S	  37.6564000000	  10.3464000000	  21.1699000000
O	  38.3952000000	  11.0567000000	  22.2453000000
O	  36.2596000000	  10.7558000000	  20.8019000000
C	  38.6106000000	  10.5241000000	  19.6316000000
C	  37.7706000000	   8.5699300000	  21.3302000000
C	  39.1034000000	   9.1239500000	  19.2642000000
C	  38.3116000000	   8.0644700000	  19.9819000000
H	  37.8465000000	  10.8841000000	  18.9536000000
H	  39.3464000000	  11.2626000000	  19.7946000000
H	  38.4694000000	   8.2795400000	  22.0548000000
H	  36.8006000000	   8.1806300000	  21.5994000000
H	  38.9906000000	   9.0724600000	  18.2033000000
H	  40.1101000000	   9.0390100000	  19.4231000000
H	  37.4825000000	   7.8404900000	  19.3310000000
H	  38.8101000000	   7.1068500000	  20.1354000000
S	  43.5431000000	  16.3146000000	  12.7925000000
S	  43.9779000000	  15.4002000000	  14.7020000000
S	  44.3778000000	  16.9475000000	  16.2025000000
S	  40.6580000000	  14.9112000000	  18.7910000000
S	  40.0421000000	  13.9137000000	  20.5547000000
S	  38.3311000000	  14.6243000000	  21.5380000000
S	  42.3439000000	  16.1072000000	  18.9647000000
S	  42.6927000000	  17.4284000000	  17.3341000000
