42

Li	   1.0004200000	  35.4563000000	  31.6762000000
O	   2.2030900000	  37.0884000000	  31.1874000000
O	   3.6740000000	  38.7802000000	  30.8020000000
C	   2.2707400000	  37.8499000000	  32.4211000000
C	   3.3707800000	  38.8966000000	  32.1701000000
C	   2.6200900000	  38.0430000000	  30.2522000000
H	   1.2738500000	  38.3193000000	  32.4673000000
H	   2.5195500000	  37.2350000000	  33.3262000000
H	   3.0776300000	  39.8419000000	  32.5585000000
H	   4.2543900000	  38.3803000000	  32.6304000000
H	   2.8781500000	  37.6427000000	  29.2074000000
H	   1.7578800000	  38.6784000000	  30.0712000000
S	   2.4981900000	  33.3597000000	  33.8711000000
O	   2.0028500000	  34.4117000000	  32.9850000000
O	   1.9123700000	  33.0976000000	  35.1891000000
C	   2.6746300000	  31.8199000000	  32.9683000000
C	   4.2542200000	  33.6829000000	  34.1761000000
C	   4.1705800000	  31.5827000000	  32.8711000000
C	   4.9351800000	  32.3859000000	  33.9476000000
H	   2.1574100000	  31.0224000000	  33.4739000000
H	   2.1871600000	  31.8900000000	  32.0044000000
H	   4.5685500000	  34.4690000000	  33.5305000000
H	   4.3828400000	  34.0313000000	  35.1203000000
H	   4.4147500000	  30.4837000000	  32.8900000000
H	   4.4639900000	  31.9023000000	  31.8287000000
H	   4.9198100000	  31.7992000000	  34.8900000000
H	   6.0172600000	  32.5685000000	  33.6925000000
S	  -1.1743755185	  35.7832000000	  33.9828000000
O	  -0.3644755185	  35.1782000000	  35.0773000000
O	  -0.5900755185	  35.9892000000	  32.6434000000
C	  -2.8155755185	  35.0210000000	  33.8588000000
C	  -1.7501755185	  37.3962000000	  34.5257000000
C	  -3.8312755185	  36.1760000000	  33.7408000000
C	  -3.3126755185	  37.3760000000	  34.5006000000
H	  -2.7201755185	  34.3269000000	  32.9789000000
H	  -2.9414755185	  34.4606000000	  34.7127000000
H	  -1.3630755185	  37.5511000000	  35.5601000000
H	  -1.3160755185	  38.2222000000	  33.8731000000
H	  -3.8028755185	  36.3519000000	  32.6735000000
H	  -4.8723755185	  35.9601000000	  33.9823000000
H	  -3.7635755185	  38.2955000000	  34.2219000000
H	  -3.6592755185	  37.3689000000	  35.5589000000
