61

Li	  48.1225000000	   4.4068000000	  52.0013000000
S	  47.0858000000	   4.9117400000	  54.8484000000
O	  47.8960000000	   4.2842800000	  53.7458000000
O	  45.7755000000	   5.5279000000	  54.5495000000
C	  46.8229000000	   3.6765500000	  56.1981000000
C	  48.1229000000	   5.9763100000	  55.7747000000
C	  47.5982000000	   4.2051300000	  57.3680000000
C	  48.0132000000	   5.6717600000	  57.2559000000
H	  45.7971000000	   3.6885300000	  56.2168000000
H	  47.2703000000	   2.8214700000	  55.7900000000
H	  49.1936000000	   5.8393500000	  55.5304000000
H	  47.8711000000	   7.0576400000	  55.5127000000
H	  47.0310000000	   3.9733900000	  58.3092000000
H	  48.5874000000	   3.6771700000	  57.3885000000
H	  47.1402000000	   6.2189000000	  57.7012000000
H	  48.8542000000	   5.9610900000	  57.9229000000
S	  46.0111000000	   6.5326600000	  50.8059000000
O	  46.5759000000	   5.2898800000	  51.3506000000
O	  46.4207000000	   7.2688000000	  49.6117000000
C	  44.2278000000	   6.2479700000	  50.5285000000
C	  45.7399000000	   7.8187700000	  52.0787000000
C	  43.3983000000	   7.5701900000	  50.9190000000
C	  44.2707000000	   8.2198800000	  52.0434000000
H	  44.0384000000	   6.1038100000	  49.4425000000
H	  43.8755000000	   5.3848200000	  51.1670000000
H	  46.0599000000	   7.4470000000	  53.0497000000
H	  46.4169000000	   8.6987900000	  51.8615000000
H	  43.3974000000	   8.3801800000	  50.1898000000
H	  42.3961000000	   7.3938800000	  51.3164000000
H	  44.3034000000	   9.2886900000	  51.8500000000
H	  43.7482000000	   8.1527000000	  53.0098000000
S	  49.9056000000	   5.7513800000	  49.7651000000
O	  49.4917000000	   5.5250100000	  51.1684000000
O	  49.2568000000	   6.7771400000	  48.9563000000
C	  51.6579000000	   6.1254000000	  49.6420000000
C	  50.0785000000	   4.2074700000	  48.9396000000
C	  52.4227000000	   4.7050600000	  49.8623000000
C	  51.3392000000	   3.5766100000	  49.5294000000
H	  51.7995000000	   6.4427800000	  48.6128000000
H	  51.9383000000	   6.7850900000	  50.3999000000
H	  49.3059000000	   3.4705500000	  49.0439000000
H	  50.1424000000	   4.5207800000	  47.8888000000
H	  53.2051000000	   4.4971500000	  49.1176000000
H	  52.8662000000	   4.6152000000	  50.8827000000
H	  51.8056000000	   2.7012500000	  49.0180000000
H	  50.9924000000	   3.1289400000	  50.4464000000
S	  47.4947000000	   1.3398600000	  51.2791000000
O	  46.3079000000	   1.2933100000	  50.4430000000
O	  48.1217000000	   2.6111600000	  51.5715000000
C	  47.1449000000	   0.4715768430	  52.7938000000
C	  48.6541000000	   0.1289768430	  50.6176000000
C	  47.4543000000	  -1.0165231570	  52.4833000000
C	  48.5140000000	  -1.1256231570	  51.4067000000
H	  47.8032000000	   0.9592450000	  53.5084000000
H	  46.1323000000	   0.6159768430	  53.1536000000
H	  48.3969000000	  -0.0091231570	  49.5560000000
H	  49.6299000000	   0.6066768430	  50.7825000000
H	  47.7392000000	  -1.5868231570	  53.4054000000
H	  46.5004000000	  -1.3212231570	  52.1228000000
H	  49.4375000000	  -1.3492231570	  51.8915000000
H	  48.2741000000	  -1.9709231570	  50.7850000000
