72

Li	  44.0102000000	  33.0557000000	   4.1168200000
O	  44.2002000000	  33.3527000000	   2.1389900000
O	  44.7776000000	  34.5382000000	   0.3582457968
C	  45.4477000000	  32.8464000000	   1.7664600000
C	  45.9654000000	  33.9210000000	   0.7366457968
C	  43.9682000000	  34.5735000000	   1.4752100000
H	  46.2292000000	  32.7177000000	   2.5686200000
H	  45.4166000000	  31.8756000000	   1.2727800000
H	  46.5647000000	  34.6404000000	   1.3789300000
H	  46.5812000000	  33.6022000000	  -0.1249542032
H	  42.8696000000	  34.6380000000	   1.1585000000
H	  44.2146000000	  35.4512000000	   2.0784100000
S	  42.0932000000	  30.3889000000	   3.2054000000
O	  40.6890000000	  30.4021000000	   3.5997200000
O	  43.0965000000	  31.3143000000	   3.7855300000
C	  42.6112000000	  28.6590000000	   3.4391500000
C	  42.2508000000	  30.2840000000	   1.3949800000
C	  43.6785000000	  28.4990000000	   2.4194800000
C	  43.0678000000	  29.0067000000	   1.1329900000
H	  42.8606000000	  28.4471000000	   4.4716400000
H	  41.6938000000	  28.0988000000	   3.2640000000
H	  41.3044000000	  30.0697000000	   0.8959190000
H	  42.6203000000	  31.2190000000	   0.9453060000
H	  44.6098000000	  29.0665000000	   2.7046700000
H	  43.9015000000	  27.4373000000	   2.2267200000
H	  43.8512000000	  29.2692000000	   0.4061457968
H	  42.4228000000	  28.2365000000	   0.7035457968
S	  46.0983000000	  35.8035000000	   4.7317500000
O	  45.0244000000	  34.8186000000	   4.4058600000
O	  46.2616000000	  37.0495000000	   3.9404900000
C	  46.1329000000	  36.1265000000	   6.5002300000
C	  47.7606000000	  34.9319000000	   4.7153000000
C	  47.5925000000	  36.4084000000	   6.8155500000
C	  48.5449000000	  35.5086000000	   5.8589600000
H	  45.5520000000	  36.9560000000	   6.8396900000
H	  45.7435000000	  35.2807000000	   6.9637400000
H	  47.6027000000	  33.8614000000	   5.0116500000
H	  48.2376000000	  35.2179000000	   3.7701100000
H	  47.8255000000	  37.4845000000	   6.7011200000
H	  47.8124000000	  36.1631000000	   7.8752400000
H	  49.4988000000	  35.9687000000	   5.5981900000
H	  48.7701000000	  34.6054000000	   6.4261900000
S	  40.7297000000	  34.2119000000	   4.3866600000
O	  39.6969000000	  33.1546000000	   4.4181800000
O	  42.1488000000	  33.9127000000	   4.2041500000
C	  40.1945000000	  35.5380000000	   3.1955800000
C	  40.3185000000	  35.1999000000	   5.8690900000
C	  39.3552000000	  36.5056000000	   4.0352200000
C	  39.8112000000	  36.5787000000	   5.4418200000
H	  41.0977000000	  35.8493000000	   2.8393600000
H	  39.6353000000	  35.1092000000	   2.3178500000
H	  39.3917000000	  34.7630000000	   6.3299500000
H	  41.1348000000	  35.2093000000	   6.5646200000
H	  39.2449000000	  37.5147000000	   3.6173700000
H	  38.3859000000	  36.1212000000	   4.1165400000
H	  40.6832000000	  37.1960000000	   5.3391300000
H	  39.1008000000	  37.1153000000	   6.1019200000
N	  44.2080000000	  32.0366000000	   6.9986700000
S	  45.6013000000	  31.8491000000	   6.3549400000
O	  45.5417000000	  32.1949000000	   4.9691800000
O	  46.7365000000	  32.2880000000	   7.1085600000
C	  45.8546000000	  30.0238000000	   6.3280100000
F	  45.9487000000	  29.5023000000	   7.5478600000
F	  46.9799000000	  29.6631000000	   5.7054900000
F	  44.7959000000	  29.3536000000	   5.8711700000
S	  43.8401000000	  32.8845000000	   8.2455500000
O	  42.4670000000	  33.3553000000	   8.1368600000
O	  44.8389000000	  33.7980000000	   8.7544500000
C	  43.7461000000	  31.5878000000	   9.4598300000
F	  43.4987000000	  32.0273000000	  10.6523000000
F	  42.8381000000	  30.7428000000	   9.0650200000
F	  44.8624000000	  30.8569000000	   9.4952400000
