46

Li	  55.5589000000	  55.6262000000	  48.4592000000
S	  58.4300000000	  57.2128000000	  47.7758000000
O	  57.1418000000	  56.6789000000	  48.1672000000
O	  59.5631155185	  56.4132000000	  47.2963000000
C	  58.1293000000	  58.5224000000	  46.5233000000
C	  59.0650000000	  58.3547000000	  49.0255000000
C	  58.6334000000	  59.8518831570	  47.0538000000
C	  58.5510000000	  59.7745231570	  48.5280000000
H	  58.7728000000	  58.2995000000	  45.6829000000
H	  57.1787000000	  58.5427000000	  46.2011000000
H	  58.6812000000	  58.0247000000	  49.9803000000
H	  60.1198155185	  58.3068000000	  49.1201000000
H	  59.6852455185	  60.0103231570	  46.8193000000
H	  58.0957000000	  60.7382531570	  46.6712000000
H	  59.0339000000	  60.4761731570	  49.1108000000
H	  57.4787000000	  59.9399631570	  48.8130000000
S	  54.4080000000	  52.9654000000	  49.4449000000
O	  55.2239000000	  53.9360000000	  48.8560000000
O	  54.4181000000	  52.8397000000	  50.9232000000
C	  52.7059000000	  53.3205000000	  48.9700000000
C	  54.6785000000	  51.3760000000	  48.6193000000
C	  52.1345000000	  51.8918000000	  48.8136000000
C	  53.2598000000	  50.8107000000	  48.7392000000
H	  52.1333000000	  53.9591000000	  49.6319000000
H	  52.7165000000	  53.7463000000	  47.9808000000
H	  55.0886000000	  51.5897000000	  47.6272000000
H	  55.4714000000	  50.8667000000	  49.1404000000
H	  51.5067000000	  51.4353000000	  49.5387000000
H	  51.5909000000	  51.8536000000	  47.8800000000
H	  53.2232000000	  50.2610000000	  49.6377000000
H	  53.1528000000	  50.2332000000	  47.8383000000
N	  54.7928000000	  54.5860000000	  44.2911000000
S	  56.1430000000	  53.8053000000	  44.6462000000
O	  57.3583000000	  54.6140000000	  44.9117000000
O	  55.9300000000	  52.5869000000	  45.3655000000
C	  56.4782000000	  53.0685000000	  42.9689000000
F	  57.5208000000	  52.2358000000	  42.9116000000
F	  56.6958000000	  54.0833000000	  42.1699000000
F	  55.4612000000	  52.4033000000	  42.4264000000
S	  53.9805000000	  55.6276000000	  45.2464000000
O	  54.6174000000	  55.7698000000	  46.5261000000
O	  52.5641000000	  55.4472000000	  45.1671000000
C	  54.1846000000	  57.1870000000	  44.3794000000
F	  55.4870000000	  57.2469000000	  44.0498000000
F	  53.4597000000	  57.3500000000	  43.2859000000
F	  53.8356000000	  58.2193000000	  45.2216000000
