47

Li	  21.5996000000	  28.3352000000	  15.9074000000
S	  21.7484000000	  26.4863000000	  13.3135000000
O	  21.4514000000	  27.1690000000	  14.5762000000
O	  20.7587000000	  25.9371000000	  12.4233000000
C	  22.7943000000	  27.5855000000	  12.3431000000
C	  22.9734000000	  25.2542000000	  13.7572000000
C	  24.1263000000	  26.8417000000	  12.1465000000
C	  24.3003000000	  25.8605000000	  13.2476000000
H	  22.3598000000	  27.9330000000	  11.3405000000
H	  22.8851000000	  28.5847000000	  12.9304000000
H	  22.9151000000	  25.1687000000	  14.8614000000
H	  22.6127000000	  24.4151000000	  13.2140000000
H	  24.0152000000	  26.2179000000	  11.1997000000
H	  25.0760000000	  27.4842000000	  12.0856000000
H	  25.0775000000	  25.0832000000	  13.1119000000
H	  24.8021000000	  26.4149000000	  14.0504000000
S	  19.5821000000	  29.3251000000	  18.4982000000
O	  20.1826000000	  28.4097000000	  17.5523000000
O	  18.2626000000	  29.8938000000	  18.3006000000
C	  19.5985000000	  28.4621000000	  20.0531000000
C	  20.8245000000	  30.5365000000	  18.8853000000
C	  20.9236000000	  28.8325000000	  20.7122000000
C	  21.3755000000	  30.1542000000	  20.2290000000
H	  18.6535000000	  28.7395000000	  20.6660000000
H	  19.6378000000	  27.3616000000	  19.9881000000
H	  21.6073000000	  30.2558000000	  18.1866000000
H	  20.4988000000	  31.5357000000	  18.7509000000
H	  20.8905000000	  28.6800000000	  21.7840000000
H	  21.6207000000	  28.0758000000	  20.3615000000
H	  21.1127000000	  30.9009000000	  20.9785000000
H	  22.4818000000	  30.2029000000	  20.2673000000
S	  31.9001000000	  25.0219000000	  20.9580000000
S	  32.1010000000	  27.0626000000	  21.4486000000
S	  31.2828000000	  28.3010000000	  19.9004000000
S	  26.6144000000	  27.4733000000	  18.1278000000
S	  24.6337000000	  27.8343000000	  18.8268000000
S	  23.2243000000	  27.9428000000	  17.2571000000
S	  28.0479000000	  28.9937000000	  18.4354000000
S	  29.2154000000	  28.7382000000	  20.2248000000
S	  14.2800000000	  26.9864000000	   7.4533100000
S	  16.3021000000	  27.6921000000	   7.3948900000
S	  16.7315000000	  29.2283000000	   8.6830700000
S	  19.8848000000	  31.0021000000	  12.3349000000
S	  19.8132000000	  30.8463000000	  14.4403000000
S	  21.6920000000	  30.5744000000	  15.3646000000
S	  19.4801000000	  29.2642000000	  11.1087000000
S	  17.4141000000	  28.7812000000	  10.6277000000
