54

Li	  49.9993000000	  55.4570000000	  35.7831000000
S	  51.3852000000	  58.0180000000	  36.2835000000
O	  50.1937000000	  57.4677000000	  35.6534000000
O	  52.7356000000	  57.6992000000	  35.7879000000
C	  51.3183000000	  59.8023031570	  36.5028000000
C	  51.2763000000	  57.7206000000	  38.0993000000
C	  51.8432000000	  60.1305531570	  37.9190000000
C	  51.9693000000	  58.8789000000	  38.7689000000
H	  51.7726000000	  60.3303131570	  35.6765000000
H	  50.3360000000	  60.2253531570	  36.2861000000
H	  50.2909000000	  57.7361000000	  38.4810000000
H	  51.6371000000	  56.7129000000	  38.5181000000
H	  52.8208000000	  60.7408931570	  37.8476000000
H	  51.2177000000	  60.7266131570	  38.4933000000
H	  53.0368000000	  58.6427000000	  38.8845000000
H	  51.5919000000	  59.0727000000	  39.8084000000
S	  53.0115000000	  54.1544000000	  36.2513000000
O	  51.5938000000	  54.5456000000	  36.2525000000
O	  54.0826000000	  55.0917000000	  35.9054000000
C	  53.4775000000	  53.5046000000	  37.8425000000
C	  53.2643000000	  52.5614000000	  35.4663000000
C	  54.6818000000	  52.7036000000	  37.5278000000
C	  54.3435000000	  51.8104000000	  36.3502000000
H	  53.6593000000	  54.4083000000	  38.5334000000
H	  52.6238000000	  52.9834000000	  38.1321000000
H	  52.3827000000	  51.9043000000	  35.4735000000
H	  53.6469000000	  52.5755000000	  34.4315000000
H	  55.5838000000	  53.3414000000	  37.2917000000
H	  54.9862000000	  52.0894000000	  38.4072000000
H	  55.3101000000	  51.6729000000	  35.8366000000
H	  53.9869000000	  50.9082000000	  36.8130000000
S	  47.9110000000	  54.2929000000	  38.1001000000
O	  48.8205000000	  55.2626000000	  37.4176000000
O	  48.4264000000	  52.9357000000	  38.2833000000
C	  47.1975000000	  55.0455000000	  39.6216000000
C	  46.3701000000	  54.1850000000	  37.1378000000
C	  45.7022000000	  55.2132000000	  39.4130000000
C	  45.2185000000	  54.8235000000	  37.9779000000
H	  47.3422000000	  54.3959000000	  40.4120000000
H	  47.7466000000	  55.9540000000	  39.8723000000
H	  46.5220000000	  54.6665000000	  36.1444000000
H	  46.0894000000	  53.1459000000	  36.9411000000
H	  45.1609000000	  54.6226000000	  40.1633000000
H	  45.2931000000	  56.1907000000	  39.5054000000
H	  44.4476000000	  54.0411000000	  37.9046000000
H	  44.6777000000	  55.6288000000	  37.4998000000
S	  49.0669000000	  54.3319000000	  34.1977000000
S	  48.0536000000	  55.7006000000	  32.8055000000
S	  47.1343000000	  57.3277000000	  33.8309000000
S	  42.6423000000	  56.9359000000	  35.5876000000
S	  40.7273000000	  57.3035000000	  34.8841000000
S	  39.1182000000	  57.8009000000	  36.3353000000
S	  44.0900000000	  58.3908000000	  34.9978000000
S	  45.1500000000	  57.6692000000	  33.3159000000
