35

Li	  54.4643000000	  42.3268000000	  12.3263000000
S	  56.1360000000	  41.1738000000	  14.9403000000
O	  57.5079000000	  41.5549000000	  15.2326000000
O	  55.4089000000	  41.8716000000	  13.8582000000
C	  55.0522000000	  41.2845000000	  16.4307000000
C	  55.0627000000	  42.7747000000	  16.8118000000
C	  53.5443000000	  40.9091000000	  16.2199000000
C	  56.1578000000	  39.3546000000	  14.5977000000
H	  55.4625000000	  40.6386000000	  17.1708000000
H	  55.9558000000	  42.8478000000	  17.4272000000
H	  55.0817000000	  43.4898000000	  15.9979000000
H	  54.2433000000	  42.9919000000	  17.5043000000
H	  53.0615000000	  41.0840000000	  17.1680000000
H	  53.0441000000	  41.4966000000	  15.4610000000
H	  53.4661000000	  39.8514000000	  16.0081000000
H	  55.1773000000	  39.1234000000	  14.3557000000
H	  56.8631000000	  39.1463000000	  13.8159000000
H	  56.4222000000	  38.8695000000	  15.5671000000
S	  51.5894000000	  42.5306000000	  13.2917000000
O	  51.5869000000	  43.2596000000	  14.5662000000
O	  52.8089000000	  41.9539000000	  12.7382000000
C	  50.9216000000	  43.5379000000	  11.8806000000
C	  49.5957000000	  44.2427000000	  12.2711000000
C	  52.0283000000	  44.5242000000	  11.4815000000
C	  50.4685000000	  41.1076000000	  13.3608000000
H	  50.6829000000	  42.8341000000	  11.0590000000
H	  48.8468000000	  43.4715000000	  12.4022000000
H	  49.6993000000	  44.8114000000	  13.2409000000
H	  49.2050000000	  45.0409000000	  11.6927000000
H	  52.8619000000	  43.8784000000	  11.0504000000
H	  51.6759000000	  45.2700000000	  10.7099000000
H	  52.4167000000	  45.1154000000	  12.2691000000
H	  49.3803000000	  41.1995000000	  13.6504000000
H	  50.5032000000	  40.6774000000	  12.3228000000
H	  50.8735000000	  40.4078000000	  14.1052000000
