46

Li	  12.3284000000	  12.3401000000	  33.2316000000
O	  12.6441000000	  14.1475000000	  32.6838000000
O	  12.8115000000	  16.3045000000	  31.9484000000
C	  12.2727000000	  14.2337000000	  31.3493000000
C	  12.9412000000	  15.4384000000	  30.8046000000
C	  12.7708000000	  15.4686000000	  33.1007000000
H	  12.5263000000	  13.4278000000	  30.6393000000
H	  11.1814000000	  14.3099000000	  31.3332000000
H	  13.9873000000	  15.2291000000	  30.5621000000
H	  12.3412000000	  15.8667000000	  30.0074000000
H	  11.8451000000	  15.5978000000	  33.7045000000
H	  13.7116000000	  15.6490000000	  33.5944000000
S	   9.4712900000	  10.8569000000	  32.7457000000
O	  10.7212000000	  11.6410000000	  32.5164000000
O	   9.5122200000	   9.6217300000	  33.5396000000
C	   8.7467200000	  10.4211000000	  31.0983000000
C	   8.7559400000	  11.6556000000	  30.1824000000
C	   9.6188200000	   9.3552700000	  30.4446000000
C	   8.2000400000	  11.9657000000	  33.4959000000
H	   7.7569400000	   9.9316100000	  31.1952000000
H	   9.6776300000	  12.1261000000	  29.9943000000
H	   8.3563600000	  11.1723000000	  29.2932000000
H	   8.0632200000	  12.4064000000	  30.4212000000
H	  10.6446000000	   9.6283600000	  30.2166000000
H	   9.6013800000	   8.4383400000	  30.9958000000
H	   9.2853500000	   9.0664300000	  29.4232000000
H	   7.2765600000	  11.4010000000	  33.8417000000
H	   8.5126600000	  12.4170000000	  34.3903000000
H	   7.9658600000	  12.7378000000	  32.7593000000
S	  13.5464000000	   9.7092000000	  34.3184000000
O	  12.3527000000	   8.8741800000	  34.5356000000
O	  13.4585000000	  11.0147000000	  33.6528000000
C	  14.6928000000	   8.6869500000	  33.3876000000
C	  14.0365000000	   8.3859400000	  31.9931000000
C	  16.0639000000	   9.3865000000	  33.2386000000
C	  14.2948000000	  10.0451000000	  35.9498000000
H	  14.8286000000	   7.7155700000	  33.8788000000
H	  14.7555000000	   8.0015300000	  31.3009000000
H	  13.3143000000	   7.6268100000	  32.0228000000
H	  13.4338000000	   9.2895100000	  31.5506000000
H	  16.6195000000	   8.7450400000	  32.5177000000
H	  15.9828000000	  10.3732000000	  32.7629000000
H	  16.7517000000	   9.4053400000	  34.0811000000
H	  13.6288000000	  10.7121000000	  36.5055000000
H	  14.2497000000	   9.0730900000	  36.4740000000
H	  15.2952000000	  10.4230000000	  35.8398000000
