60

Li	   1.1528800000	  28.8369000000	  34.3382000000
S	   3.6151400000	  27.0471000000	  34.1794000000
O	   2.2536900000	  27.4420000000	  34.6023000000
O	   3.8300400000	  25.7571000000	  33.5094000000
C	   4.5593900000	  26.8958000000	  35.7360000000
C	   4.4295600000	  28.0996000000	  36.6491000000
C	   4.2908200000	  25.6165000000	  36.4470000000
C	   4.3759100000	  28.4675000000	  33.2552000000
H	   5.4679200000	  26.8629000000	  35.2590000000
H	   4.9073900000	  29.0260000000	  36.2398000000
H	   3.3974300000	  28.3519000000	  36.9353000000
H	   4.9063600000	  27.8267000000	  37.6037000000
H	   3.3158800000	  25.5345000000	  36.9904000000
H	   4.3679900000	  24.7049000000	  35.8664000000
H	   4.9979900000	  25.4480000000	  37.2582000000
H	   5.2006400000	  28.0600000000	  32.6783000000
H	   3.6702200000	  28.8216000000	  32.5515000000
H	   4.6701200000	  29.2956000000	  33.8937000000
S	   1.9624900000	  31.6198000000	  35.7284000000
O	   3.2612300000	  32.0164000000	  35.0974000000
O	   1.4338200000	  30.2385000000	  35.5653000000
C	   0.6853086909	  32.8069000000	  35.0541000000
C	   1.1078900000	  34.2825000000	  35.0662000000
C	   0.1518086909	  32.3859000000	  33.6953000000
C	   2.1056200000	  31.9803000000	  37.5478000000
H	  -0.1465913091	  32.7748000000	  35.7366000000
H	   0.2371086909	  34.8454000000	  34.9976000000
H	   1.5965400000	  34.4802000000	  36.0068000000
H	   1.8035800000	  34.4455000000	  34.2833000000
H	   0.9246086909	  32.4915000000	  33.0034000000
H	  -0.2522913091	  31.3659000000	  33.7357000000
H	  -0.6187913091	  33.1497000000	  33.4150000000
H	   2.9298400000	  31.4646000000	  37.9815000000
H	   2.1234800000	  33.0464000000	  37.7038000000
H	   1.2859500000	  31.6104000000	  38.1022000000
S	  -1.1177913091	  27.7407000000	  36.2527000000
O	  -0.5292913091	  28.2776000000	  34.9912000000
O	  -1.8627913091	  26.5113000000	  36.1761000000
C	  -2.2656913091	  29.0172000000	  36.9846000000
C	  -2.6597913091	  30.1811000000	  36.0434000000
C	  -3.5210913091	  28.3685000000	  37.6079000000
C	   0.1300086909	  27.6161000000	  37.6080000000
H	  -1.7157913091	  29.5010000000	  37.7764000000
H	  -3.2982913091	  30.8792000000	  36.6257000000
H	  -1.8875913091	  30.7377000000	  35.5610000000
H	  -3.2615913091	  29.7649000000	  35.2630000000
H	  -4.0733913091	  27.9022000000	  36.7522000000
H	  -3.3843913091	  27.5791000000	  38.3651000000
H	  -4.2540913091	  29.1070000000	  38.0853000000
H	  -0.2336913091	  27.2763000000	  38.5863000000
H	   0.8924086909	  26.8982000000	  37.3705000000
H	   0.6442086909	  28.5904000000	  37.5394000000
S	   3.5228000000	  23.5365000000	  31.2489000000
S	   2.8558300000	  23.0597000000	  29.2133000000
S	   3.1445600000	  24.5521000000	  27.7231000000
S	   3.4403800000	  28.7269000000	  29.7724000000
S	   2.1237300000	  29.9682000000	  30.7354000000
S	   0.8752086909	  29.2165000000	  32.2548000000
S	   2.7685700000	  27.9723000000	  27.8721000000
S	   1.6994300000	  26.1299000000	  27.9184000000
