78

Li	  43.7086000000	  52.5424000000	   1.2454000000
O	  44.4933000000	  54.9123000000	   4.2926700000
O	  43.6405000000	  53.5273000000	   2.8259900000
C	  43.8896000000	  53.9817000000	   5.1094600000
C	  43.3000000000	  52.9957000000	   4.1106600000
C	  43.9748000000	  54.8726000000	   3.0760500000
H	  44.8087000000	  53.6077000000	   5.6611500000
H	  43.0762000000	  54.3959000000	   5.7644300000
H	  43.6329000000	  51.9784000000	   4.2157900000
H	  42.2194000000	  52.8290000000	   3.9627400000
H	  43.0594000000	  55.5015000000	   3.1461700000
H	  44.6924000000	  55.2324000000	   2.3351900000
S	  46.2221000000	  53.8831000000	  -0.2111339870
O	  45.0127000000	  53.3635000000	   0.4044660130
O	  46.4357000000	  55.2903000000	  -0.5518339870
C	  46.4352000000	  52.8425000000	  -1.6258339870
C	  46.2578000000	  51.4203000000	  -1.1797339870
C	  45.2895000000	  53.1711000000	  -2.6729339870
C	  47.5682000000	  53.3114000000	   0.8403660130
H	  47.4477000000	  53.0656000000	  -1.9341339870
H	  45.3496000000	  51.1826000000	  -0.6724339870
H	  46.2721000000	  50.7249000000	  -2.0169339870
H	  46.9523000000	  51.1143000000	  -0.4396339870
H	  45.2967000000	  54.2072000000	  -3.1142339870
H	  45.4676000000	  52.5694000000	  -3.5620339870
H	  44.2817000000	  53.0834000000	  -2.2571339870
H	  47.3967000000	  52.3197000000	   1.1375800000
H	  48.4325000000	  53.2800000000	   0.2088660130
H	  47.7087000000	  53.9305000000	   1.7086400000
S	  41.8393000000	  55.0631000000	  -0.4724339870
O	  42.2178000000	  55.1529000000	  -1.8685339870
O	  42.2899000000	  53.9274000000	   0.3206660130
C	  40.0308000000	  55.1071000000	  -0.5462339870
C	  39.4685000000	  55.2089000000	   0.8812660130
C	  39.3874000000	  56.2031000000	  -1.4868339870
C	  42.1363000000	  56.5359000000	   0.3966660130
H	  39.7549000000	  54.1392000000	  -0.9406339870
H	  38.4081000000	  54.9067000000	   0.7659660130
H	  39.8564000000	  54.5276000000	   1.6510300000
H	  39.5427000000	  56.2037000000	   1.3270900000
H	  39.7531000000	  57.1406000000	  -1.1347339870
H	  39.7146000000	  55.9324000000	  -2.5109339870
H	  38.3269000000	  56.1299000000	  -1.4793339870
H	  43.1926000000	  56.6540000000	   0.4624660130
H	  41.5761000000	  57.3955000000	   0.0192660130
H	  41.8284000000	  56.3515000000	   1.3518700000
S	  41.2947000000	  50.4262000000	   0.8884660130
O	  40.6565000000	  50.0683000000	   2.1593900000
O	  42.5163000000	  51.2037000000	   0.8290660130
C	  40.0882000000	  51.1818000000	  -0.2500339870
C	  40.5826000000	  51.4822000000	  -1.6679339870
C	  38.6834000000	  50.5016000000	  -0.1288339870
C	  41.6580000000	  48.8220000000	   0.0823660130
H	  39.9004000000	  52.1276000000	   0.2181660130
H	  39.9014000000	  52.0021000000	  -2.3244339870
H	  41.4789000000	  52.0879000000	  -1.6723339870
H	  40.9312000000	  50.6538000000	  -2.2525339870
H	  38.5321000000	  50.1628000000	   0.8843660130
H	  37.9892000000	  51.2528000000	  -0.2391339870
H	  38.4724000000	  49.7633000000	  -0.8600339870
H	  40.7431000000	  48.2989000000	  -0.0653339870
H	  42.0487000000	  49.0070000000	  -0.9083339870
H	  42.5147000000	  48.3689000000	   0.5785660130
N	  45.7454000000	  49.7626000000	   4.1748500000
S	  47.0693000000	  50.4616000000	   4.6872100000
O	  47.9177000000	  51.0366000000	   3.6587000000
O	  46.8928000000	  51.2851000000	   5.8850600000
C	  47.9746000000	  48.9101000000	   5.1211700000
F	  47.5283000000	  48.3437000000	   6.2318100000
F	  49.2693000000	  49.0565000000	   5.3898600000
F	  47.9571000000	  48.0524000000	   4.1414900000
S	  45.0211000000	  49.9415000000	   2.7880400000
O	  45.2776000000	  51.2823000000	   2.2192600000
O	  43.6823000000	  49.3301000000	   2.7835100000
C	  45.9747000000	  48.7787000000	   1.7232800000
F	  47.1764000000	  49.1663000000	   1.4459800000
F	  46.0287000000	  47.5844000000	   2.3324700000
F	  45.4280000000	  48.4925000000	   0.5649660130
