48

Li	  18.7773000000	   1.9812400000	  46.3784000000
O	  18.5402000000	   1.7365700000	  48.1411000000
O	  17.8337000000	   3.1236200000	  49.7037000000
C	  19.6210000000	   1.7081100000	  49.1202000000
C	  19.0891000000	   2.6556500000	  50.1792000000
C	  17.4140000000	   2.0983100000	  48.8528000000
H	  19.7920000000	   0.7177122133	  49.5493000000
H	  20.3926000000	   2.1816800000	  48.5385000000
H	  19.0395000000	   2.0136200000	  51.0613000000
H	  19.8426000000	   3.4214700000	  50.4923000000
H	  16.6336000000	   2.3680400000	  48.1532000000
H	  17.0309000000	   1.3582800000	  49.5451000000
O	  15.4394000000	  -0.4174877867	  45.4833000000
O	  16.9315000000	   1.1925100000	  45.7929000000
C	  15.5250000000	   0.1235122133	  44.2002000000
C	  16.6363000000	   1.2099700000	  44.4056000000
C	  16.6686000000	  -0.0623877867	  46.0743000000
H	  15.7672000000	  -0.6840877867	  43.5190000000
H	  14.6654000000	   0.5678122133	  43.8672000000
H	  17.5500000000	   0.9443122133	  43.7876000000
H	  16.4002000000	   2.2211100000	  44.0181000000
H	  16.6916000000	  -0.2099877867	  47.1623000000
H	  17.3975000000	  -0.7906877867	  45.6789000000
S	  21.4387000000	   0.3702122133	  45.6577000000
O	  22.4967000000	   0.4953122133	  46.6502000000
O	  20.1620000000	   1.0333122133	  45.8827000000
C	  21.1635000000	  -1.4749877867	  45.3177000000
C	  22.5034000000	  -2.0715877867	  44.8308000000
C	  20.6443000000	  -2.0568877867	  46.6848000000
C	  22.0281000000	   1.0878100000	  44.0836000000
H	  20.3152000000	  -1.5591877867	  44.6828000000
H	  22.6839000000	  -1.7460877867	  43.8197000000
H	  23.3195000000	  -1.6681877867	  45.3476000000
H	  22.4403000000	  -3.1539877867	  44.9432000000
H	  19.8674000000	  -1.4727877867	  47.1237000000
H	  20.4299000000	  -3.1032877867	  46.4907000000
H	  21.4309000000	  -1.9912877867	  47.4443000000
H	  21.3048000000	   0.9330122133	  43.3120000000
H	  22.3916000000	   2.1048100000	  44.3069000000
H	  22.9132000000	   0.5659122133	  43.8179000000
S	  13.3601000000	   6.8456700000	  40.7894000000
S	  12.9791000000	   4.7429200000	  40.6961000000
S	  14.2767000000	   3.7152600000	  41.9942000000
S	  19.0248000000	   3.3439300000	  42.6573000000
S	  19.4501000000	   4.5413200000	  44.3131000000
S	  18.2101000000	   3.9846400000	  46.0058000000
S	  17.7492000000	   4.3651000000	  41.2361000000
S	  16.0593000000	   3.0744800000	  40.9578000000
