44

Li	  14.9062000000	  35.7227000000	   5.5159900000
O	  12.0854000000	  38.2950000000	   6.4163700000
O	  13.6980000000	  36.7648000000	   6.3831500000
C	  12.4772000000	  38.2459000000	   7.7358700000
C	  13.4423000000	  37.0082000000	   7.7439900000
C	  13.0206000000	  37.7070000000	   5.6517200000
H	  13.0894000000	  39.0804000000	   7.9953000000
H	  11.6009000000	  38.3065000000	   8.4241300000
H	  14.3774000000	  37.0871000000	   8.2512200000
H	  12.8160000000	  36.1999000000	   7.9756000000
H	  12.5782000000	  37.2715000000	   4.7100600000
H	  13.7584000000	  38.4847000000	   5.3471100000
S	  13.7103000000	  33.5350000000	   3.4199500000
O	  13.3565000000	  32.2068000000	   3.9330700000
O	  13.9657000000	  34.6445000000	   4.3658900000
C	  12.4156000000	  34.1576000000	   2.3052000000
C	  12.9337000000	  35.2819000000	   1.3409200000
C	  11.8045000000	  33.0640000000	   1.4128100000
C	  15.2235000000	  33.3009000000	   2.3896100000
H	  11.6311000000	  34.5660000000	   2.9401300000
H	  12.0952000000	  35.7532000000	   0.8594660130
H	  13.4770000000	  36.0638000000	   1.8609400000
H	  13.5041000000	  34.8326000000	   0.4830660130
H	  11.1628000000	  33.5058000000	   0.6305660130
H	  12.6057000000	  32.6242000000	   0.8624660130
H	  11.2367000000	  32.3405000000	   1.9355300000
H	  15.4626000000	  34.4583000000	   2.3802000000
H	  16.0112000000	  32.7528000000	   2.9181800000
H	  15.0019000000	  32.7978000000	   1.4210800000
N	  13.1033000000	  33.1359000000	   7.9798400000
S	  14.6280000000	  33.1363000000	   7.3475200000
O	  14.9003000000	  32.1536000000	   6.3167400000
O	  15.1200000000	  34.4881000000	   7.1635500000
C	  15.6834000000	  32.5117000000	   8.7072900000
F	  15.3593000000	  31.2666000000	   8.9836800000
F	  15.5125000000	  33.3036000000	   9.7433100000
F	  16.9906000000	  32.6032000000	   8.4424900000
S	  11.7740000000	  32.3694000000	   7.5530400000
O	  10.9404000000	  31.9206000000	   8.6799600000
O	  11.9103000000	  31.4977000000	   6.3702300000
C	  10.8652000000	  33.8270000000	   6.9925600000
F	  10.7628000000	  34.6879000000	   7.9676900000
F	  11.3823000000	  34.4670000000	   5.8981400000
F	   9.6668000000	  33.5601000000	   6.6165000000
