69

Li	  32.1217000000	  24.5114000000	  30.4236000000
S	  30.4871000000	  23.0765000000	  28.2661000000
O	  30.7410000000	  23.6819000000	  29.5652000000
O	  29.9010000000	  23.9007000000	  27.2190000000
C	  29.3954000000	  21.6096000000	  28.5396000000
C	  27.9855000000	  21.8772000000	  29.1685000000
C	  29.1564000000	  20.9197000000	  27.1537000000
C	  32.0920000000	  22.5326000000	  27.6494000000
H	  30.0126000000	  21.0877000000	  29.2816000000
H	  27.2497000000	  22.2306000000	  28.4243000000
H	  27.6422000000	  21.0056000000	  29.6911000000
H	  28.0161000000	  22.7280000000	  29.7655000000
H	  28.3370000000	  21.4811000000	  26.6544000000
H	  29.9833000000	  20.8465000000	  26.5738000000
H	  28.7905000000	  19.8655000000	  27.3021000000
H	  32.1592000000	  21.8865000000	  26.8283000000
H	  32.8033000000	  23.3377000000	  27.4806000000
H	  32.5026000000	  21.9233000000	  28.4834000000
S	  35.1603000000	  23.1148000000	  29.9087000000
O	  35.9729000000	  24.3200000000	  29.8500000000
O	  33.7032000000	  23.4232000000	  30.1037000000
C	  35.7326000000	  21.9666000000	  31.2839000000
C	  35.5052000000	  22.7734000000	  32.5411000000
C	  35.0428000000	  20.6269000000	  31.2012000000
C	  35.3714000000	  22.1616000000	  28.4060000000
H	  36.8158000000	  21.8975000000	  31.2504000000
H	  34.5206000000	  22.9844000000	  32.7447000000
H	  35.8100000000	  22.2404000000	  33.4366000000
H	  36.1371000000	  23.6466000000	  32.6135000000
H	  34.0796000000	  20.7486000000	  31.6541000000
H	  34.8161000000	  20.2735000000	  30.2265000000
H	  35.6555000000	  19.8300000000	  31.6556000000
H	  34.4938000000	  21.5245000000	  28.3827000000
H	  35.2668000000	  22.8016000000	  27.5390000000
H	  36.3659000000	  21.6804000000	  28.4176000000
S	  30.6669000000	  23.9190000000	  33.6608000000
O	  29.3771000000	  24.5624000000	  33.9034000000
O	  31.4943000000	  24.2956000000	  32.4879000000
C	  30.4823000000	  22.0886000000	  33.7865000000
C	  29.4437000000	  21.7976000000	  32.7292000000
C	  31.7051000000	  21.1557000000	  33.5366000000
C	  31.6360000000	  24.2339000000	  35.1010000000
H	  30.0983000000	  21.9235000000	  34.8046000000
H	  29.9419000000	  21.7946000000	  31.7601000000
H	  28.9192000000	  20.8269000000	  32.7731000000
H	  28.7076000000	  22.5375000000	  32.7116000000
H	  31.4008000000	  20.1261000000	  33.8342000000
H	  32.1810000000	  21.0662000000	  32.5501000000
H	  32.4403000000	  21.4942000000	  34.2541000000
H	  31.4494000000	  25.2316000000	  35.4034000000
H	  31.2169000000	  23.5602000000	  35.8408000000
H	  32.7004000000	  24.0285000000	  34.9294000000
S	  33.2455000000	  27.6188000000	  30.3064000000
O	  32.2037000000	  28.5994000000	  29.9056000000
O	  32.7163000000	  26.2544000000	  30.4320000000
C	  33.8303000000	  28.1224000000	  31.9695000000
C	  32.5912000000	  28.3110000000	  32.8393000000
C	  34.6697000000	  27.0443000000	  32.6183000000
C	  34.7327000000	  27.6734000000	  29.2715000000
H	  34.3279000000	  29.0674000000	  31.8722000000
H	  32.0021000000	  27.3964000000	  32.7912000000
H	  32.8283000000	  28.5284000000	  33.8721000000
H	  31.9584000000	  29.0760000000	  32.4527000000
H	  35.4084000000	  26.5493000000	  31.9907000000
H	  35.1730000000	  27.3429000000	  33.5575000000
H	  33.9878000000	  26.2464000000	  32.9972000000
H	  35.2396000000	  26.7252000000	  29.3989000000
H	  34.4915000000	  27.6942000000	  28.2511000000
H	  35.3116000000	  28.5242000000	  29.3812000000
