53

Li	  18.2405000000	  28.8302000000	  13.5561000000
O	  20.0264000000	  29.0694000000	  14.0502000000
O	  21.9424000000	  28.6469000000	  15.2066000000
C	  20.9652000000	  28.7707000000	  13.0528000000
C	  22.2174000000	  28.4265000000	  13.8127000000
C	  20.7964000000	  29.3096000000	  15.1786000000
H	  20.6166000000	  27.8672000000	  12.5465000000
H	  21.1718000000	  29.5993000000	  12.4392000000
H	  22.4780000000	  27.3503000000	  13.7004000000
H	  22.9559000000	  29.1683000000	  13.4912000000
H	  21.0569000000	  30.3712000000	  15.1613000000
H	  20.2401000000	  29.0768000000	  16.0498000000
O	  16.1559000000	  29.5587000000	  13.5632000000
O	  17.3605000000	  29.1685000000	  15.1787000000
C	  15.6050000000	  28.2899000000	  13.9073000000
C	  16.3802000000	  28.0968000000	  15.2043000000
C	  16.6697000000	  30.2023000000	  14.6239000000
H	  14.5248000000	  28.4664000000	  14.1652000000
H	  15.6187000000	  27.5945000000	  13.0483000000
H	  15.7619000000	  28.3203000000	  16.0953000000
H	  16.7299000000	  27.1013000000	  15.2874000000
H	  17.3274000000	  30.9939000000	  14.3519000000
H	  15.8410000000	  30.5774000000	  15.2696000000
N	  17.0744000000	  29.5142000000	   9.4849200000
S	  18.0892000000	  28.7122000000	  10.3565000000
O	  18.0870000000	  29.2510000000	  11.7220000000
O	  17.9384000000	  27.3042000000	  10.1436000000
C	  19.6902000000	  29.1735000000	   9.6898500000
F	  20.6670000000	  28.4091000000	  10.1835000000
F	  20.0848000000	  30.4435000000	   9.8960400000
F	  19.7127000000	  28.7827000000	   8.4184600000
S	  15.6749000000	  29.0870000000	   8.8976000000
O	  14.5755000000	  29.7672000000	   9.5799300000
O	  15.5825000000	  27.7090000000	   8.6150900000
C	  15.5951000000	  29.7836000000	   7.2373800000
F	  16.4514000000	  29.2683000000	   6.3552000000
F	  14.3295000000	  29.6775000000	   6.6371900000
F	  15.7706000000	  31.0750000000	   7.1688300000
N	  19.1206000000	  24.6170000000	  12.4724000000
S	  18.2123000000	  25.4253000000	  13.4020000000
O	  18.3182000000	  26.8339000000	  13.1774000000
O	  16.8397000000	  24.9241000000	  13.5562000000
C	  18.9774000000	  25.1632000000	  15.0197000000
F	  18.9799000000	  23.8688000000	  15.3205000000
F	  18.4599000000	  25.7646000000	  16.0276000000
F	  20.2366000000	  25.5738000000	  15.0914000000
S	  18.7868000000	  23.7499000000	  11.1621000000
O	  17.7276000000	  24.3127000000	  10.3006000000
O	  18.6709000000	  22.2994000000	  11.4163000000
C	  20.3119000000	  23.9061000000	  10.1738000000
F	  21.3581000000	  23.4186000000	  10.8316000000
F	  20.1348000000	  23.3260000000	   9.0103800000
F	  20.5940000000	  25.1989000000	   9.9550500000
