54

Li	  35.3840000000	  28.9484000000	  30.9704000000
N	  35.5764000000	  33.1813000000	  32.3037000000
S	  35.3848000000	  32.4088000000	  30.9066000000
O	  35.4075000000	  30.9893000000	  31.0135000000
O	  34.5422000000	  32.9592000000	  29.8485000000
C	  36.9787000000	  32.8908000000	  30.2090000000
F	  37.8957000000	  33.0505000000	  31.1588000000
F	  36.9248000000	  34.1493000000	  29.6784000000
F	  37.3546000000	  32.0497000000	  29.2320000000
S	  34.4981000000	  33.0563000000	  33.4125000000
O	  33.2099000000	  32.5666000000	  32.9410000000
O	  34.6154000000	  34.0865000000	  34.3717000000
C	  35.0734000000	  31.6613000000	  34.3649000000
F	  34.3385000000	  31.4187000000	  35.4284000000
F	  34.8935000000	  30.5434000000	  33.7221000000
F	  36.3580000000	  31.7658000000	  34.7506000000
N	  31.9789000000	  28.6820000000	  27.9886000000
S	  33.3810000000	  29.3418000000	  28.3363000000
O	  33.3640000000	  30.7878000000	  28.5380000000
O	  34.1942000000	  28.5302000000	  29.2415000000
C	  34.2664000000	  29.2285000000	  26.7408000000
F	  34.8104000000	  28.0437000000	  26.4607000000
F	  35.3074000000	  30.0346000000	  26.8759000000
F	  33.5688000000	  29.6706000000	  25.7577000000
S	  30.5485000000	  29.3863000000	  27.9259000000
O	  30.4781000000	  30.8392000000	  28.0170000000
O	  29.5073000000	  28.6168000000	  28.5532000000
C	  30.2076000000	  29.0707000000	  26.1413000000
F	  28.8650000000	  28.8581000000	  25.9459000000
F	  30.6358000000	  30.0688000000	  25.3766000000
F	  30.8047000000	  28.0173000000	  25.5467000000
N	  39.3484000000	  27.5924000000	  29.5911000000
S	  38.1434000000	  28.1899000000	  28.8101000000
O	  37.3794000000	  27.2121000000	  28.1325000000
O	  37.4020000000	  29.1263000000	  29.5993000000
C	  39.0128000000	  29.1747000000	  27.5062000000
F	  39.6746000000	  30.1807000000	  28.0689000000
F	  38.1598000000	  29.8220000000	  26.7008000000
F	  39.9014000000	  28.4790000000	  26.7427000000
S	  39.5055000000	  26.0997000000	  29.9838000000
O	  39.1824000000	  25.1071000000	  28.9952000000
O	  39.0877000000	  25.8637000000	  31.3591000000
C	  41.3179000000	  26.0268000000	  30.0608000000
F	  41.9140000000	  26.5085000000	  29.0100000000
F	  41.6964000000	  26.7999000000	  31.0453000000
F	  41.7925000000	  24.7787000000	  30.1914000000
S	  36.3400000000	  28.0582000000	  32.6656000000
S	  36.0922000000	  26.4940000000	  31.2565000000
S	  34.1107000000	  25.7863000000	  31.0610000000
S	  32.3503000000	  20.7616000000	  31.3779000000
S	  32.6671000000	  18.8288000000	  30.4840000000
S	  30.7196000000	  18.0813000000	  29.9126000000
S	  33.2600000000	  22.3450000000	  30.4192000000
S	  33.8493000000	  23.8857000000	  31.8059000000
