53

Li	  35.2144000000	  45.1559000000	  19.0479000000
O	  35.3472000000	  43.0147000000	  18.6894000000
O	  36.5980000000	  41.7446000000	  17.2660000000
C	  34.3469000000	  42.4053000000	  17.8577000000
C	  35.2141000000	  41.5901000000	  16.8727000000
C	  36.5215000000	  42.3316000000	  18.5162000000
H	  33.6051000000	  41.7491000000	  18.3996000000
H	  33.7797000000	  43.0818000000	  17.1035000000
H	  34.9504000000	  40.5370000000	  16.7661000000
H	  35.0344000000	  41.9227000000	  15.8379000000
H	  37.3920000000	  43.0415000000	  18.6785000000
H	  36.6237000000	  41.4752000000	  19.1417000000
O	  34.4075000000	  45.3503000000	  20.7049000000
O	  33.3770000000	  44.0729000000	  22.2136000000
C	  33.5245000000	  46.2543000000	  21.3349000000
C	  32.8830000000	  45.3697000000	  22.4209000000
C	  34.5988000000	  44.3113000000	  21.6440000000
H	  34.0779000000	  47.1170000000	  21.7422000000
H	  32.7885000000	  46.6496000000	  20.6318000000
H	  33.0941000000	  45.6316000000	  23.4401000000
H	  31.7931000000	  45.4561000000	  22.4051000000
H	  34.9628000000	  43.4846000000	  21.0610000000
H	  35.2616000000	  44.6520000000	  22.4810000000
N	  33.2906000000	  46.8209000000	  16.1940000000
S	  34.7923000000	  46.4387000000	  15.9526000000
O	  35.4836000000	  47.5510000000	  15.3590000000
O	  35.4136000000	  45.5912000000	  16.9283000000
C	  34.7558000000	  45.3567000000	  14.4609000000
F	  35.9555000000	  45.0767000000	  13.9573000000
F	  33.9443000000	  45.8801000000	  13.5766000000
F	  34.2723000000	  44.1824000000	  14.8054000000
S	  32.3752000000	  46.3562000000	  17.3178000000
O	  31.5492000000	  47.3925000000	  17.8469000000
O	  32.9676000000	  45.4557000000	  18.2750000000
C	  31.1843000000	  45.3165000000	  16.4276000000
F	  30.4715000000	  46.0739000000	  15.6329000000
F	  31.6309000000	  44.3356000000	  15.7090000000
F	  30.2969000000	  44.8184000000	  17.2583000000
N	  37.9958000000	  47.6568000000	  19.1679000000
S	  36.6203000000	  48.3306000000	  18.7817000000
O	  36.6207000000	  48.9801000000	  17.4686000000
O	  35.4442000000	  47.5114000000	  19.1685000000
C	  36.6011000000	  49.7957000000	  19.8578000000
F	  35.6560000000	  50.6010000000	  19.3953000000
F	  37.7218000000	  50.5040000000	  19.8597000000
F	  36.4395000000	  49.4540000000	  21.1260000000
S	  38.2248000000	  46.1691000000	  19.5859000000
O	  39.4748000000	  45.5762000000	  19.2115000000
O	  37.1534000000	  45.2996000000	  19.2491000000
C	  38.1306000000	  46.1882000000	  21.3744000000
F	  36.9308000000	  46.6040000000	  21.6541000000
F	  38.3689000000	  44.9606000000	  21.9882000000
F	  38.9066000000	  47.0205000000	  21.9793000000
