32

Li	  54.6402000000	  24.2835000000	  37.8320000000
N	  53.1174000000	  27.0944000000	  40.2007000000
S	  54.6518000000	  26.6883000000	  40.0803000000
O	  54.7955000000	  25.4849000000	  39.3161000000
O	  55.4956000000	  27.8056000000	  39.8196000000
C	  55.0275000000	  26.1977000000	  41.8248000000
F	  54.1951000000	  25.2620000000	  42.3415000000
F	  54.9472000000	  27.3139000000	  42.5827000000
F	  56.2680000000	  25.6698000000	  41.9393000000
S	  51.9077000000	  26.2351000000	  40.0154000000
O	  51.7640000000	  25.2927000000	  41.0534000000
O	  51.5973000000	  25.8772000000	  38.6507000000
C	  50.6236000000	  27.3741000000	  40.4391000000
F	  50.4131000000	  28.2903000000	  39.4385000000
F	  49.5062000000	  26.7172000000	  40.6318000000
F	  50.8833000000	  28.0386000000	  41.5774000000
S	  53.2591000000	  24.9895000000	  36.4726000000
S	  55.2268000000	  24.7550000000	  35.7013000000
S	  56.6007000000	  26.3022000000	  36.1962000000
S	  60.6377742534	  27.6039000000	  38.5285000000
S	  61.5877142534	  26.4115000000	  39.9688000000
S	  62.5567042534	  24.6406000000	  39.2509000000
S	  58.5645000000	  27.3866000000	  38.8914000000
S	  57.8013000000	  25.7428000000	  37.8253000000
S	  63.4724042534	  22.5779000000	  42.0650000000
S	  63.0032642534	  21.2228000000	  40.5277000000
S	  61.1579942534	  21.4436000000	  39.6157000000
S	  56.5319000000	  20.9373000000	  41.3124000000
S	  55.9810000000	  22.7976000000	  40.4200000000
S	  54.6198000000	  22.4523000000	  38.7724000000
S	  58.6297000000	  21.0180000000	  41.9300000000
S	  59.7822642534	  20.1120000000	  40.4901000000
