35

Li	   9.3604400000	   5.7657800000	  22.9761000000
O	   9.8819600000	   5.4390400000	  24.7265000000
O	  11.4799000000	   4.0421200000	  25.5550000000
C	   9.4342400000	   5.1001400000	  26.0283000000
C	  10.3080000000	   3.9113100000	  26.3288000000
C	  11.2324000000	   5.1804700000	  24.7928000000
H	   9.5930600000	   5.9297200000	  26.7375000000
H	   8.4091500000	   4.7225600000	  26.2251000000
H	  10.3125000000	   3.6738000000	  27.3946000000
H	   9.9693800000	   2.9186500000	  25.9405000000
H	  11.6746000000	   5.2066900000	  23.7390000000
H	  11.8069000000	   6.0089600000	  25.2354000000
N	   6.1567600000	   4.5449300000	  23.4182000000
S	   7.3124200000	   3.4863900000	  23.5532000000
O	   8.5233500000	   3.9125800000	  22.8827000000
O	   7.2941100000	   2.8681200000	  24.8753000000
C	   6.6868500000	   2.1161500000	  22.5184000000
F	   5.9580400000	   2.5386800000	  21.5525000000
F	   5.9614000000	   1.2469900000	  23.2216000000
F	   7.6033500000	   1.3622000000	  21.9662000000
S	   6.3382300000	   6.0412800000	  23.6552000000
O	   7.6769300000	   6.5812500000	  23.5444000000
O	   5.5333500000	   6.4746700000	  24.7420000000
C	   5.4609300000	   6.6161300000	  22.1975000000
F	   6.0020800000	   6.2809400000	  21.0590000000
F	   4.2525900000	   6.1277700000	  22.1713000000
F	   5.3137900000	   7.9426600000	  22.1349000000
S	   9.2458100000	   5.7438500000	  20.7599000000
S	  10.3651000000	   7.2910700000	  21.6806000000
S	  12.3093000000	   7.3452500000	  20.9745000000
S	  16.1885000000	   6.9865400000	  24.4078000000
S	  18.2998000000	   6.9336900000	  23.8945000000
S	  19.5438000000	   8.2979800000	  24.8798000000
S	  14.9651000000	   7.7654500000	  22.9020000000
S	  13.5004000000	   6.4212400000	  22.3244000000
