68

Li	  14.2893000000	   6.3798400000	  16.8710000000
O	  15.0727000000	   3.3462100000	  19.1887000000
O	  15.1980000000	   4.9939100000	  17.6859000000
C	  15.9989000000	   2.8219500000	  18.2674000000
C	  16.1621000000	   4.0210400000	  17.3360000000
C	  15.1039000000	   4.6879500000	  19.0364000000
H	  16.9545000000	   2.7548800000	  18.8005000000
H	  15.6799000000	   1.8609100000	  17.9060000000
H	  17.1703000000	   4.4232200000	  17.2876000000
H	  16.0458000000	   3.6868700000	  16.3566000000
H	  14.2390000000	   5.2157600000	  19.4429000000
H	  16.0310000000	   5.0535900000	  19.5247000000
O	  12.7599000000	   6.8253200000	  13.4890000000
O	  14.2325000000	   6.1132500000	  15.0089000000
C	  12.5423000000	   5.4196200000	  13.6025000000
C	  13.8169000000	   4.9928300000	  14.3724000000
C	  13.9559000000	   7.0860400000	  14.0720000000
H	  11.6494000000	   5.1287700000	  14.1774000000
H	  12.5073000000	   4.9683900000	  12.6250000000
H	  13.4219000000	   4.2973200000	  15.0939000000
H	  14.5331000000	   4.4451600000	  13.8523000000
H	  14.7766000000	   7.0635300000	  13.3342000000
H	  13.9406000000	   8.0325000000	  14.6399000000
N	  14.5731000000	  10.6089000000	  17.5645000000
S	  15.1454000000	  11.7785000000	  16.7465000000
O	  16.4973000000	  11.5771000000	  16.4827000000
O	  14.3218000000	  12.5719000000	  15.8914000000
C	  15.3054000000	  12.9246000000	  18.1388000000
F	  14.1223000000	  13.2392000000	  18.5978000000
F	  16.0238000000	  14.0124000000	  17.8752000000
F	  15.9796000000	  12.3104000000	  19.1233000000
S	  13.3750000000	   9.6836200000	  17.0640000000
O	  13.6657000000	   8.2719700000	  17.1093000000
O	  12.6278000000	  10.2745000000	  15.9618000000
C	  12.1974000000	   9.9506100000	  18.3636000000
F	  12.7643000000	   9.7584500000	  19.5373000000
F	  11.8620000000	  11.2640000000	  18.3093000000
F	  11.1538000000	   9.1170500000	  18.3252000000
N	  18.7801000000	   6.7112100000	  16.7075000000
S	  17.7051000000	   7.8561400000	  17.0140000000
O	  18.0036000000	   9.2337500000	  16.6234000000
O	  16.3770000000	   7.3099100000	  16.7753000000
C	  17.8059000000	   8.0274100000	  18.8872000000
F	  19.0526000000	   8.2121100000	  19.2566000000
F	  17.3268000000	   6.9440900000	  19.4834000000
F	  17.0886000000	   9.0540800000	  19.2570000000
S	  20.1823000000	   6.8985200000	  16.1041000000
O	  21.2774000000	   6.9714300000	  16.9968000000
O	  20.3007000000	   7.6785000000	  14.8663000000
C	  20.2308000000	   5.1998200000	  15.4793000000
F	  21.5255000000	   4.8640000000	  15.3088000000
F	  19.7655000000	   4.2744200000	  16.2579000000
F	  19.4996000000	   5.1807600000	  14.3704000000
N	  11.7136000000	   4.2387500000	  19.0396000000
S	  11.6062000000	   2.8254200000	  19.5248000000
O	  11.3938000000	   1.7231000000	  18.5832000000
O	  12.4612000000	   2.6174900000	  20.6587000000
C	   9.9779000000	   2.9448300000	  20.3550000000
F	   8.9142200000	   2.8700400000	  19.5923000000
F	   9.7676500000	   4.0041600000	  21.1183000000
F	   9.8801600000	   1.9533900000	  21.2738000000
S	  11.6433000000	   4.6856500000	  17.5314000000
O	  11.4015000000	   3.6554300000	  16.5813000000
O	  12.6049000000	   5.6685700000	  17.1183000000
C	  10.0644000000	   5.6232300000	  17.5282000000
F	  10.0938000000	   6.5595100000	  18.4445000000
F	   9.7919200000	   6.0651100000	  16.3478000000
F	   9.0054900000	   4.9238000000	  17.9430000000
