46

Li	  18.6471000000	  56.6221000000	  12.7647000000
O	  17.9799000000	  54.6345000000	  13.8411000000
O	  16.8583000000	  53.5413000000	  15.3814000000
C	  17.5851000000	  53.4973000000	  13.1661000000
C	  16.5900000000	  52.9337000000	  14.1794000000
C	  18.0355000000	  54.2688000000	  15.1481000000
H	  17.1139000000	  53.6344000000	  12.2009000000
H	  18.4109000000	  52.8424000000	  13.0337000000
H	  15.5569000000	  53.1131000000	  13.8163000000
H	  16.5755000000	  51.8586000000	  14.2812000000
H	  18.9135000000	  53.6082000000	  15.2009000000
H	  18.1850000000	  55.1190000000	  15.8018000000
O	  16.8615000000	  57.5424000000	  13.2797000000
O	  14.9540000000	  58.6370000000	  13.1267000000
C	  16.6816000000	  58.1411000000	  14.5197000000
C	  15.4911000000	  59.0972422776	  14.3666000000
C	  16.0356000000	  58.2986000000	  12.4304000000
H	  16.4570000000	  57.3562000000	  15.2184000000
H	  17.5855000000	  58.7740000000	  14.9135000000
H	  14.8641000000	  58.9504000000	  15.1905000000
H	  15.8089000000	  60.1033592776	  14.2000000000
H	  16.5143000000	  59.2566892776	  12.1694000000
H	  15.7681000000	  57.9305000000	  11.5002000000
N	  21.3280000000	  58.7241000000	  14.3242000000
S	  20.6968000000	  59.4400292776	  13.0898000000
O	  21.7015000000	  60.0553992776	  12.2093000000
O	  19.5726000000	  58.7033000000	  12.5315000000
C	  19.9637000000	  60.9457792776	  13.8109000000
F	  19.1826000000	  60.7734192776	  14.8930000000
F	  19.1908000000	  61.5878492776	  12.9693000000
F	  20.9076000000	  61.8570792776	  14.1626000000
S	  20.8993000000	  57.2940000000	  14.8443000000
O	  21.9725000000	  56.3788000000	  14.6066000000
O	  19.5707000000	  56.8591000000	  14.5873000000
C	  20.9155000000	  57.6022000000	  16.6525000000
F	  20.4414000000	  56.5530000000	  17.3200000000
F	  22.1068000000	  57.7722000000	  17.0969000000
F	  20.1669000000	  58.6308000000	  16.9518000000
S	  27.5194000000	  58.1430000000	  10.2460000000
S	  27.3563000000	  56.1736000000	  11.0295000000
S	  26.2673000000	  54.9986000000	   9.7087400000
S	  21.6689000000	  56.2497000000	  10.4526000000
S	  20.0866000000	  55.4221000000	  11.4465000000
S	  18.1470000000	  56.0766000000	  10.7349000000
S	  22.8025000000	  54.7256000000	   9.6266700000
S	  24.5465000000	  54.1685000000	  10.6610000000
