61

Li	   5.3107800000	  20.4954000000	  45.6410000000
O	   5.4556900000	  19.7184000000	  49.7916000000
O	   5.5285600000	  19.6270000000	  47.5555000000
C	   4.4235200000	  18.8190000000	  49.4250000000
C	   4.6925000000	  18.5887000000	  47.9321000000
C	   6.3427900000	  19.7816000000	  48.7121000000
H	   4.5031400000	  17.9141000000	  49.9965000000
H	   3.5505000000	  19.4218000000	  49.5248000000
H	   5.2383600000	  17.6210000000	  47.7472000000
H	   3.8274300000	  18.5467000000	  47.2795000000
H	   6.9851300000	  20.6855000000	  48.6276000000
H	   7.0515000000	  18.9270000000	  48.8693000000
O	   4.6237100000	  22.1802000000	  46.8508000000
O	   3.6917700000	  23.7329000000	  48.3272000000
C	   5.0556700000	  23.4461000000	  46.5072000000
C	   4.6221400000	  24.4754000000	  47.6245000000
C	   4.0491300000	  22.3762000000	  48.1767000000
H	   6.1336800000	  23.4373000000	  46.3442000000
H	   4.5636500000	  23.7893000000	  45.5988000000
H	   5.4321000000	  24.6372000000	  48.2796000000
H	   4.2268600000	  25.4337000000	  47.2277000000
H	   3.2048000000	  21.6400000000	  48.2097000000
H	   4.8141700000	  22.0667000000	  48.8990000000
N	   9.5274400000	  21.5583000000	  46.2240000000
S	   8.6704300000	  20.5830000000	  45.3514000000
O	   9.1848300000	  19.2070000000	  45.2160000000
O	   7.2141900000	  20.7118000000	  45.4168000000
C	   9.1080900000	  21.2134000000	  43.6744000000
F	  10.4026000000	  21.1669000000	  43.4718000000
F	   8.7482500000	  22.4414000000	  43.4709000000
F	   8.5136000000	  20.5584000000	  42.6904000000
S	  10.8349000000	  21.2379000000	  47.1375000000
O	  11.9646000000	  22.0464000000	  46.8450000000
O	  10.9600000000	  19.8624000000	  47.5291000000
C	  10.3641000000	  22.0465000000	  48.8357000000
F	  11.1819000000	  21.8047000000	  49.8755000000
F	  10.1422000000	  23.3656000000	  48.7886000000
F	   9.2193700000	  21.4908000000	  49.1969000000
N	   6.4379800000	  16.3326000000	  45.7993000000
S	   7.8608700000	  15.9406000000	  46.3441000000
O	   8.4601400000	  14.7779000000	  45.7155000000
O	   8.7539400000	  17.0726000000	  46.5368000000
C	   7.4569800000	  15.3057000000	  48.0100000000
F	   7.0007900000	  16.3312000000	  48.6484000000
F	   8.5882700000	  14.9421000000	  48.5739000000
F	   6.6120300000	  14.2855000000	  48.0128000000
S	   6.1615900000	  17.2591000000	  44.5623000000
O	   7.1740100000	  17.1118000000	  43.4936000000
O	   5.6519900000	  18.5823000000	  44.8809000000
C	   4.7609700000	  16.3136000000	  43.9332000000
F	   4.1375400000	  16.8644000000	  42.8495000000
F	   5.0458500000	  15.0533000000	  43.6135000000
F	   3.7734600000	  16.3259000000	  44.8328000000
S	   4.6003200000	  21.2881000000	  43.9186000000
S	   2.9457100000	  20.3426000000	  44.9338000000
S	   1.8713500000	  19.1216000000	  43.5817000000
S	  -2.6756542534	  18.6870000000	  41.2741000000
S	  -4.2853542534	  20.0730000000	  41.0807000000
S	  -4.9766542534	  20.1804000000	  39.0546000000
S	  -0.7832542534	  19.6633000000	  41.1780000000
S	  -0.0833542534	  19.7958000000	  43.2296000000
