39

Li	   1.9129600000	  26.1524000000	  20.0058000000
N	   4.8693200000	  27.0370000000	  22.5871000000
S	   6.2007400000	  26.2497000000	  22.6859000000
O	   6.0163900000	  24.9664000000	  23.3166000000
O	   7.1105200000	  26.3273000000	  21.5665000000
C	   7.1043500000	  27.1992000000	  23.9232000000
F	   8.1769400000	  26.5646000000	  24.2653000000
F	   6.4246100000	  27.4722000000	  25.0061000000
F	   7.5606700000	  28.3269000000	  23.5087000000
S	   3.4083000000	  26.5786000000	  22.6214000000
O	   3.1458000000	  25.2369000000	  23.1146000000
O	   2.7419400000	  26.9599000000	  21.4326000000
C	   2.7197100000	  27.7598000000	  23.8005000000
F	   1.3814900000	  27.5759000000	  23.9228000000
F	   3.2308700000	  27.6646000000	  25.0043000000
F	   2.8002000000	  29.0446000000	  23.4902000000
N	   2.4799700000	  22.2007000000	  20.9151000000
S	   2.2807500000	  21.7469000000	  22.3660000000
O	   3.4525100000	  21.7957000000	  23.2554000000
O	   0.9410880000	  22.0818000000	  22.8866000000
C	   2.0651200000	  19.9798000000	  22.0810000000
F	   1.1858100000	  19.7364000000	  21.1494000000
F	   1.6819200000	  19.3747000000	  23.1905000000
F	   3.2822600000	  19.3823000000	  21.7388000000
S	   3.5217800000	  23.2526000000	  20.3868000000
O	   4.7956000000	  23.2323000000	  21.0606000000
O	   2.9009500000	  24.4855000000	  20.0440000000
C	   3.9460500000	  22.5615000000	  18.7566000000
F	   4.0992300000	  21.2886000000	  18.9271000000
F	   2.9587300000	  22.6845000000	  17.8862000000
F	   5.0136200000	  23.0777000000	  18.1976000000
S	  -7.0745542534	  23.2447000000	  15.7973000000
S	  -5.0429542534	  22.7682000000	  15.9857000000
S	  -4.4797542534	  22.5259000000	  18.0377000000
S	  -0.5069542534	  25.6713000000	  17.0313000000
S	   0.2191457466	  27.1722000000	  18.3275000000
S	   2.3720500000	  27.1692000000	  18.3090000000
S	  -1.2743542534	  24.0276000000	  18.2458000000
S	  -3.3275542534	  24.2102000000	  18.5997000000
