39

Li	  24.2656000000	   1.1334600000	   6.5966900000
N	  20.7963000000	   0.7040007224	   7.1449200000
S	  21.4858000000	   1.9900300000	   7.6680500000
O	  21.6819000000	   2.0960500000	   9.0916600000
O	  22.5931000000	   2.3489500000	   6.8625200000
C	  20.1171000000	   3.1813300000	   7.3876000000
F	  19.1519000000	   3.0837300000	   8.3147900000
F	  19.5531000000	   3.0379900000	   6.1848500000
F	  20.6192000000	   4.4133800000	   7.5030300000
S	  20.5770000000	  -0.6454992776	   7.9959600000
O	  20.4287000000	  -0.4023992776	   9.4102600000
O	  21.4093000000	  -1.7519992776	   7.6152400000
C	  18.8605000000	  -1.1655992776	   7.5216100000
F	  17.9263000000	  -0.1392992776	   7.6099200000
F	  18.7769000000	  -1.5925992776	   6.2427800000
F	  18.4600000000	  -2.1743992776	   8.2011600000
N	  25.4101000000	   0.3531007224	  10.5186000000
S	  24.3458000000	  -0.4550992776	   9.6754700000
O	  23.0478000000	  -0.3103992776	  10.3138000000
O	  24.2521000000	  -0.2440992776	   8.2048900000
C	  24.7858000000	  -2.1838992776	   9.8684700000
F	  26.0347000000	  -2.4865992776	   9.5508600000
F	  23.9830000000	  -3.0186992776	   9.2547500000
F	  24.8139000000	  -2.5228992776	  11.0825000000
S	  26.2626000000	   1.6195900000	  10.1950000000
O	  25.9777000000	   2.2139600000	   8.9169300000
O	  27.6429000000	   1.3295800000	  10.4750000000
C	  25.7495000000	   2.9509500000	  11.3915000000
F	  25.5916000000	   2.5387300000	  12.6364000000
F	  26.5643000000	   4.0318600000	  11.3718000000
F	  24.5359000000	   3.3171700000	  10.9951000000
S	  31.0871000000	   0.8283007224	   8.6214700000
S	  31.1777000000	   2.9931500000	   8.3356100000
S	  29.1586000000	   3.6273700000	   8.1086900000
S	  25.7832000000	   2.9082100000	   5.7634700000
S	  24.5673000000	   2.0594000000	   4.3132400000
S	  23.9378000000	   0.1280007224	   4.9269900000
S	  27.7582000000	   3.1950600000	   5.1767900000
S	  28.7950000000	   4.5154100000	   6.3361500000
