28

Li	  49.8887000000	  25.7306000000	  28.0850000000
O	  47.9754000000	  27.4180000000	  24.7544000000
O	  48.9717000000	  26.5176000000	  26.5968000000
C	  46.9875000000	  26.7705000000	  25.5097000000
C	  47.6085000000	  26.7464000000	  26.8911000000
C	  49.1474000000	  26.9002000000	  25.2705000000
H	  45.9797000000	  27.1270000000	  25.5144000000
H	  46.9821000000	  25.7506000000	  25.1315000000
H	  47.4906000000	  27.8075000000	  27.2648000000
H	  47.2043000000	  26.0876000000	  27.6611000000
H	  49.3155000000	  26.0700000000	  24.5943000000
H	  50.0103000000	  27.5443000000	  25.0452000000
S	  50.1215000000	  16.5674000000	  22.2777000000
S	  49.2695000000	  18.3817000000	  21.5505000000
S	  48.6351000000	  19.6821000000	  23.0982000000
S	  49.7025000000	  23.4080000000	  25.7077000000
S	  48.9816000000	  22.6917000000	  27.5358000000
S	  48.9733000000	  24.1397000000	  29.0986000000
S	  48.4110000000	  22.9717000000	  24.0863000000
S	  49.0383000000	  21.6911000000	  22.5905000000
S	  50.3364000000	  27.3895000000	  29.1200000000
S	  52.0452000000	  26.0905000000	  28.8820000000
S	  53.0816000000	  26.5591000000	  27.0215000000
S	  53.5480000000	  25.7037000000	  22.1733000000
S	  52.9420000000	  24.6429000000	  20.4595000000
S	  51.5194000000	  25.7874000000	  19.4342000000
S	  52.2046000000	  25.4157000000	  23.7460000000
S	  53.0531000000	  24.8992000000	  25.6723000000
