28

Li	  22.2539000000	   5.9995000000	  42.7382000000
O	  23.0693000000	   7.4600400000	  43.8345000000
O	  23.2141000000	   9.0958800000	  45.4140000000
C	  24.3872000000	   7.5991600000	  44.2451000000
C	  24.2454000000	   8.1656400000	  45.6406000000
C	  22.4239000000	   8.5509800000	  44.4016000000
H	  24.8810000000	   6.6237000000	  44.2504000000
H	  24.8991000000	   8.2330500000	  43.5997000000
H	  23.9448000000	   7.4715100000	  46.4151000000
H	  25.1526000000	   8.7059300000	  45.8817000000
H	  22.3309000000	   9.3214800000	  43.6327000000
H	  21.3836000000	   8.3107600000	  44.6538000000
S	  11.9493000000	   7.8795000000	  41.5673000000
S	  13.1084000000	   6.1615400000	  41.1790000000
S	  15.0025000000	   6.7867400000	  40.8113000000
S	  19.4098000000	   6.8341600000	  42.8765000000
S	  20.3775000000	   5.9795600000	  41.2458000000
S	  22.1128000000	   6.8727600000	  40.6777000000
S	  17.6640000000	   7.9817400000	  42.4720000000
S	  15.8751000000	   6.9900000000	  42.7416000000
S	  23.6330000000	   4.4466700000	  42.4267000000
S	  22.0266000000	   3.8271300000	  43.6103000000
S	  22.4022000000	   2.0902700000	  44.6735000000
S	  18.1079000000	  -1.1669992776	  44.1469000000
S	  16.2612000000	  -0.7650992776	  45.0207000000
S	  15.0091000000	   0.2849007224	  43.6843000000
S	  19.6860000000	  -0.1677992776	  45.1381000000
S	  21.1852000000	   0.5519007224	  43.8017000000
