28

Li	  53.5083000000	  54.3255000000	  38.4099000000
O	  51.9776000000	  53.6008000000	  39.3853000000
O	  49.8773000000	  52.7081000000	  39.6835000000
C	  51.4029000000	  53.5155000000	  38.0938000000
C	  49.8985000000	  53.3808000000	  38.3813000000
C	  51.1521000000	  52.9628000000	  40.2806000000
H	  51.6931000000	  54.3728000000	  37.4281000000
H	  51.7327000000	  52.6503000000	  37.5395000000
H	  49.5994000000	  54.4081000000	  38.5431000000
H	  49.4423000000	  52.8911000000	  37.5753000000
H	  51.6315000000	  52.0699000000	  40.6070000000
H	  50.9747000000	  53.5642000000	  41.2128000000
S	  45.6610000000	  58.3452000000	  40.1208000000
S	  46.6044000000	  59.9890592776	  41.1401000000
S	  48.1007000000	  59.2743992776	  42.4579000000
S	  51.5328000000	  56.7328000000	  40.0561000000
S	  53.2894000000	  57.3206000000	  39.1365000000
S	  54.6276000000	  55.7662000000	  39.5122000000
S	  51.1856000000	  57.9506000000	  41.7406000000
S	  49.9600000000	  59.6440892776	  41.4813000000
S	  54.2637000000	  53.9177000000	  36.6177000000
S	  54.7919000000	  52.1106000000	  37.6636000000
S	  55.9546000000	  52.4827000000	  39.3983000000
S	  54.4811000000	  49.3155000000	  43.5491000000
S	  52.4442000000	  48.5867000000	  43.6017000000
S	  52.3800000000	  46.5541000000	  44.1029000000
S	  55.2565000000	  49.6861000000	  41.5959000000
S	  54.8579000000	  51.6760000000	  40.9652000000
