45

Li	  15.5037000000	   4.7787800000	  17.6256000000
O	  16.1878000000	   3.3219000000	  16.7018000000
O	  18.4142000000	   3.3748000000	  16.5144000000
C	  16.5952000000	   1.9858500000	  17.0058000000
C	  18.1018000000	   2.0656600000	  16.9556000000
C	  17.2178000000	   3.7039800000	  15.8729000000
H	  16.2941000000	   1.6921800000	  17.9784000000
H	  16.1443000000	   1.2373900000	  16.3584000000
H	  18.5300000000	   1.9050800000	  17.9603000000
H	  18.4975000000	   1.3285500000	  16.2635000000
H	  17.1769000000	   3.2110100000	  14.8442000000
H	  17.1674000000	   4.8172400000	  15.8505000000
O	  13.6618000000	   7.9339700000	  17.1225000000
O	  14.8942000000	   6.2031700000	  16.7339000000
C	  13.2482000000	   7.4998100000	  15.7669000000
C	  13.8769000000	   6.1534100000	  15.7426000000
C	  14.9431000000	   7.5068500000	  17.2327000000
H	  12.1575000000	   7.3670900000	  15.6612000000
H	  13.6382000000	   8.1870600000	  15.0796000000
H	  13.1872000000	   5.3448700000	  16.1082000000
H	  14.2491000000	   5.8784600000	  14.7551000000
H	  15.4355000000	   8.2120300000	  16.5730000000
H	  15.2509000000	   7.6014300000	  18.2971000000
O	  19.0814000000	   6.0150200000	  19.3823000000
O	  17.1000000000	   5.4807500000	  18.6472000000
C	  18.6963000000	   4.7979800000	  19.8991000000
C	  17.2357000000	   4.9904300000	  19.9811000000
C	  18.1758000000	   6.3037800000	  18.4288000000
H	  18.9647000000	   3.9149400000	  19.2948000000
H	  19.0223000000	   4.7192000000	  20.9591000000
H	  16.7253000000	   4.0219200000	  20.2331000000
H	  16.9780000000	   5.7411000000	  20.7119000000
H	  17.9029000000	   7.3798100000	  18.5525000000
H	  18.4690000000	   6.0114400000	  17.3752000000
O	  11.9709000000	   4.3170100000	  19.3661000000
O	  14.2427000000	   4.0004400000	  18.7420000000
C	  12.0546000000	   3.3511600000	  18.3648000000
C	  13.4779000000	   2.8166300000	  18.5762000000
C	  13.3094000000	   4.7961600000	  19.4783000000
H	  11.2653000000	   2.5449000000	  18.4563000000
H	  11.9047000000	   3.8286900000	  17.4016000000
H	  13.5898000000	   2.1965400000	  19.5116000000
H	  13.7613000000	   2.1697000000	  17.7396000000
H	  13.4817000000	   5.8831900000	  19.3207000000
H	  13.5359000000	   4.8131400000	  20.5610000000
