35

Li	   1.3493800000	  29.0698000000	  14.9493000000
O	   4.4398600000	  31.4985000000	  14.2037000000
O	   2.7601100000	  29.9443000000	  14.2767000000
C	   5.0642400000	  30.2592000000	  14.2399000000
C	   3.8896400000	  29.2967000000	  13.8605000000
C	   3.0809300000	  31.2575000000	  14.0634000000
H	   5.7916100000	  30.1710000000	  13.4967000000
H	   5.6433100000	  30.1747000000	  15.1944000000
H	   3.8306600000	  29.2865000000	  12.7185000000
H	   4.1282100000	  28.2381000000	  14.1436000000
H	   2.5800200000	  31.8947000000	  14.7654000000
H	   2.8281400000	  31.6643000000	  13.1257000000
N	  -0.6599542534	  27.9376000000	  12.4620000000
S	  -0.9953542534	  29.3661000000	  13.0034000000
O	  -2.3821542534	  29.4856000000	  13.2645000000
O	   0.0544457466	  29.9290000000	  13.8169000000
C	  -0.7448542534	  30.3225000000	  11.4808000000
F	  -1.1581542534	  31.5711000000	  11.5384000000
F	  -1.4567542534	  29.8630000000	  10.5044000000
F	   0.5316457466	  30.3810000000	  11.1470000000
S	   0.4110457466	  26.9375000000	  12.9985000000
O	  -0.1772542534	  25.6191000000	  13.0522000000
O	   1.1986300000	  27.3310000000	  14.1468000000
C	   1.5244600000	  26.8333000000	  11.5326000000
F	   2.5385200000	  26.0219000000	  11.7020000000
F	   0.9111457466	  26.4752000000	  10.4248000000
F	   2.1130500000	  27.9192000000	  11.2305000000
S	  -8.6425542534	  24.7801000000	  15.9766000000
S	  -6.5868542534	  25.0712000000	  15.6706000000
S	  -5.2667542534	  23.7700000000	  16.7522000000
S	  -2.0247542534	  27.0344000000	  16.0774000000
S	  -1.3814542534	  28.7632000000	  17.1636000000
S	   0.7377457466	  29.0079000000	  16.9336000000
S	  -2.2154542534	  25.4037000000	  17.3821000000
S	  -4.2298542534	  25.1090000000	  18.0702000000
