42

Li	  17.5181000000	   1.5047400000	  45.2079000000
O	  15.2301000000	   1.6491600000	  46.2585000000
O	  13.6891000000	   0.1366007224	  46.2832000000
C	  15.0717000000	   1.2986800000	  47.6545000000
C	  13.6347000000	   0.6569007224	  47.6101000000
C	  14.0732000000	   1.2107000000	  45.5774000000
H	  15.9491000000	   0.8168007224	  48.0753000000
H	  15.1428000000	   2.3048100000	  48.1069000000
H	  13.4594000000	  -0.1146992776	  48.4512000000
H	  12.8390000000	   1.4021900000	  47.8020000000
H	  13.3342000000	   1.9759300000	  45.6723000000
H	  14.2630000000	   0.9108440000	  44.5535000000
O	  17.4202000000	   2.2807600000	  43.5975000000
O	  17.5209000000	   2.5114500000	  41.3101000000
C	  16.3013000000	   3.0522200000	  43.2314000000
C	  16.7226000000	   3.5500900000	  41.8281000000
C	  18.1464000000	   2.1373800000	  42.4335000000
H	  15.4759000000	   2.3633600000	  43.2419000000
H	  16.1467000000	   3.8548900000	  43.9475000000
H	  15.8639000000	   3.6757600000	  41.2058000000
H	  17.2550000000	   4.5365700000	  41.8517000000
H	  19.1058000000	   2.6966100000	  42.4525000000
H	  18.2782000000	   1.1254300000	  42.2939000000
O	  18.4046000000	   2.7177200000	  46.3890000000
O	  20.2328000000	   3.8113100000	  47.1474000000
C	  18.8529000000	   2.0531100000	  47.6068000000
C	  20.1073000000	   2.8026500000	  48.0292000000
C	  19.0394000000	   3.9628800000	  46.4831000000
H	  18.0971000000	   1.9556200000	  48.3666000000
H	  19.1630000000	   0.9704410000	  47.4325000000
H	  19.9833000000	   3.1877700000	  49.0236000000
H	  20.9919000000	   2.1502600000	  48.0728000000
H	  19.1178000000	   4.3654200000	  45.5327000000
H	  18.5133000000	   4.7197700000	  47.1289000000
S	  24.0133000000	   3.9263500000	  43.3830000000
S	  22.7961000000	   2.6236200000	  44.4679000000
S	  23.2099000000	   2.2923900000	  46.5781000000
S	  20.7936000000	  -1.3404992776	  45.7615000000
S	  19.5611000000	   0.1035007224	  44.8242000000
S	  17.5448000000	  -0.4239992776	  44.5147000000
S	  21.6356000000	  -0.7517992776	  47.6133000000
S	  23.5194000000	   0.2857007224	  47.2631000000
