61

Li	   5.3312700000	  45.6282000000	  42.0659000000
O	   4.1863700000	  46.5022000000	  40.8928000000
O	   2.3109000000	  46.5343000000	  39.8066000000
C	   4.2628100000	  47.6705000000	  40.1051000000
C	   2.8891000000	  47.7404000000	  39.3972000000
C	   2.8564700000	  46.2597000000	  41.0617000000
H	   4.4934000000	  48.5513000000	  40.7359000000
H	   5.0116100000	  47.6343000000	  39.3161000000
H	   2.2781900000	  48.5051000000	  39.7320000000
H	   2.8831400000	  47.7447000000	  38.2823000000
H	   2.5255100000	  45.2585000000	  41.3191000000
H	   2.4894300000	  47.0167000000	  41.8088000000
O	   6.8309300000	  43.5778000000	  38.3107000000
O	   6.0852200000	  44.0804000000	  40.3706000000
C	   7.2510700000	  42.5983000000	  39.2443000000
C	   6.2980100000	  42.6509000000	  40.4191000000
C	   6.1995300000	  44.5316000000	  39.0585000000
H	   7.3948200000	  41.6476000000	  38.7893000000
H	   8.3135500000	  42.9687000000	  39.4291000000
H	   5.4267100000	  42.0164000000	  40.2921000000
H	   6.6348200000	  42.2834000000	  41.4259000000
H	   6.6316400000	  45.5018000000	  38.9577000000
H	   5.1127100000	  44.6769000000	  38.7707000000
N	   6.1960600000	  48.1789000000	  45.2190000000
S	   7.4713300000	  48.8813000000	  45.8361000000
O	   8.6294900000	  48.9829000000	  44.9362000000
O	   7.1456100000	  49.9816000000	  46.6858000000
C	   7.9602300000	  47.6450000000	  47.0631000000
F	   7.0131800000	  47.3454000000	  47.9267000000
F	   9.0310400000	  48.1089000000	  47.7602000000
F	   8.4290200000	  46.5045000000	  46.5794000000
S	   5.6195100000	  48.2637000000	  43.7655000000
O	   5.1375200000	  46.9941000000	  43.3665000000
O	   6.4088300000	  49.0083000000	  42.7923000000
C	   4.1701300000	  49.3315000000	  43.9682000000
F	   4.5817800000	  50.4943000000	  44.5522000000
F	   3.5344200000	  49.4585000000	  42.8070000000
F	   3.3209100000	  48.7982000000	  44.8224000000
N	   9.4278200000	  44.4888000000	  43.8266000000
S	   8.8332900000	  43.0925000000	  44.3116000000
O	   7.4723600000	  43.1364000000	  44.7956000000
O	   9.1579300000	  42.0831000000	  43.3732000000
C	   9.8498200000	  42.8079000000	  45.7473000000
F	  11.0912000000	  42.4551000000	  45.4315000000
F	   9.3667300000	  41.8474000000	  46.3917000000
F	   9.9548800000	  43.8248000000	  46.6572000000
S	   8.6983900000	  45.5419000000	  42.9561000000
O	   8.9528700000	  46.9681000000	  43.1521000000
O	   7.3367100000	  45.1996000000	  42.6105000000
C	   9.5998500000	  45.2050000000	  41.4651000000
F	  10.8807000000	  45.5930000000	  41.6854000000
F	   9.5624800000	  43.8923000000	  41.1568000000
F	   9.2620800000	  45.9318000000	  40.4745000000
S	   0.4790457466	  36.5787000000	  35.6740000000
S	   1.1595300000	  38.5803000000	  36.1841000000
S	   2.6604400000	  38.4899000000	  37.5957000000
S	   3.5652200000	  40.8072000000	  41.9224000000
S	   3.1870800000	  42.2684000000	  43.4308000000
S	   4.2444900000	  44.1330000000	  43.1212000000
S	   2.2970600000	  40.8680000000	  40.1385000000
S	   1.9456200000	  38.8365000000	  39.5410000000
