28

Li	  10.6151000000	   5.8704700000	  25.0656000000
O	  11.1701000000	   4.6943900000	  26.5099000000
O	   9.7137800000	   4.0696400000	  28.1268000000
C	  11.5808000000	   5.4379200000	  27.6776000000
C	  10.7430000000	   4.7147300000	  28.7924000000
C	  10.3433000000	   3.6612200000	  26.9217000000
H	  12.6533000000	   5.2817300000	  27.8911000000
H	  11.2513000000	   6.4654300000	  27.6176000000
H	  11.3702000000	   4.0050400000	  29.3099000000
H	  10.3224000000	   5.3796000000	  29.5072000000
H	   9.6553500000	   3.1929200000	  26.2182000000
H	  11.0033000000	   2.8158000000	  27.1464000000
S	   9.7754000000	   4.9055500000	  23.2779000000
S	  11.7750000000	   5.7058100000	  22.6954000000
S	  13.3733000000	   5.3412900000	  24.0571000000
S	  16.9759000000	   7.7284000000	  25.4402000000
S	  18.1155000000	   9.1149000000	  26.5687000000
S	  20.0385000000	   9.2539700000	  25.6923000000
S	  15.0374000000	   8.3620700000	  24.9293000000
S	  13.5849000000	   6.8657800000	  25.4894000000
S	  13.4461000000	  12.2761000000	  32.7189000000
S	  11.3606000000	  12.3735000000	  33.1023000000
S	  10.4140000000	  10.6823000000	  32.5141000000
S	   9.2481700000	   8.0875500000	  28.8297000000
S	   9.4734600000	   8.9059900000	  26.9631000000
S	   9.1842600000	   7.4185000000	  25.4631000000
S	   8.1657000000	   9.2940800000	  30.0880000000
S	   9.5006800000	  10.8070000000	  30.6462000000
