49

Li	  31.7548000000	  55.5448000000	  31.6371000000
O	  35.5860000000	  56.6957000000	  31.9128000000
O	  33.3849000000	  56.3299000000	  31.7951000000
C	  35.0210000000	  56.4941000000	  33.1776000000
C	  33.5523000000	  56.9480000000	  33.0488000000
C	  34.5174000000	  56.6356000000	  31.0450000000
H	  35.1610000000	  55.4439000000	  33.4744000000
H	  35.4709000000	  57.0732000000	  34.0928000000
H	  32.8570000000	  56.4794000000	  33.7330000000
H	  33.3708000000	  58.0338000000	  32.9844000000
H	  34.3993000000	  57.5354000000	  30.4723000000
H	  34.6092000000	  55.9298000000	  30.2486000000
O	  30.5409000000	  56.8268000000	  32.3851000000
O	  28.2912000000	  57.0975000000	  32.1814000000
C	  30.4243000000	  58.2029000000	  31.9610000000
C	  28.8720000000	  58.3837000000	  32.1218000000
C	  29.2971000000	  56.2846000000	  32.6535000000
H	  30.9151000000	  58.9619000000	  32.5954000000
H	  30.7606000000	  58.3530000000	  30.9408000000
H	  28.7369000000	  58.8498000000	  33.0916000000
H	  28.3432000000	  58.9655000000	  31.3822000000
H	  29.2111000000	  55.3363000000	  32.1144000000
H	  29.1639000000	  56.1735000000	  33.7109000000
O	  31.6230000000	  56.3548000000	  29.4735000000
O	  30.9353000000	  54.3308000000	  29.9420000000
C	  30.3094000000	  56.3540000000	  29.0078000000
C	  29.7742000000	  54.9447000000	  29.3460000000
C	  32.0042000000	  55.0465000000	  29.3619000000
H	  29.7051000000	  57.0724000000	  29.5272000000
H	  30.1308000000	  56.5954000000	  27.9234000000
H	  29.0111000000	  54.7711000000	  30.0595000000
H	  29.5458000000	  54.5262000000	  28.3210000000
H	  32.1956000000	  54.7507000000	  28.2994000000
H	  32.9427000000	  54.8763000000	  29.8474000000
N	  31.4166000000	  52.6214000000	  34.9209000000
S	  32.1918000000	  52.7443000000	  33.5261000000
O	  32.0909000000	  53.9586000000	  32.7634000000
O	  33.4975000000	  52.1563000000	  33.5050000000
C	  31.0775000000	  51.7481000000	  32.4813000000
F	  29.8237000000	  52.2414000000	  32.3332000000
F	  31.0428000000	  50.4736000000	  32.9124000000
F	  31.5799000000	  51.5950000000	  31.2981000000
S	  31.1020000000	  53.7709000000	  35.9794000000
O	  31.1353000000	  55.0407000000	  35.3940000000
O	  31.7321000000	  53.5198000000	  37.2423000000
C	  29.3049000000	  53.5442000000	  36.1918000000
F	  28.8621000000	  54.4149000000	  37.1179000000
F	  28.5998000000	  53.7378000000	  35.0257000000
F	  28.9919000000	  52.3772000000	  36.7271000000
