46

Li	  11.1934000000	  13.4091000000	  47.0420000000
O	   8.1883700000	  14.2024000000	  44.7605000000
O	   9.7005300000	  14.3030000000	  46.4448000000
C	   9.0595900000	  15.2224000000	  44.3391000000
C	  10.0861000000	  15.2725000000	  45.5436000000
C	   8.3636100000	  13.9454000000	  46.1500000000
H	   9.5192600000	  14.9021000000	  43.4265000000
H	   8.5396900000	  16.1515000000	  44.2865000000
H	  11.0639000000	  15.1114000000	  45.2219000000
H	  10.1436000000	  16.2047000000	  46.0695000000
H	   7.6385800000	  14.4325000000	  46.7951000000
H	   8.2788900000	  12.9182000000	  46.3542000000
O	  15.0251000000	  14.8472000000	  47.3182000000
O	  12.7739000000	  14.4344000000	  47.1296000000
C	  14.3648000000	  16.0941000000	  47.4737000000
C	  13.0729000000	  15.5335000000	  48.0285000000
C	  14.0772000000	  14.0887000000	  46.6481000000
H	  14.8251000000	  16.7768000000	  48.1513000000
H	  14.1125000000	  16.6695000000	  46.5558000000
H	  13.2782000000	  15.1881000000	  49.0291000000
H	  12.2653000000	  16.2860000000	  48.1720000000
H	  14.1423000000	  14.2854000000	  45.5410000000
H	  14.3069000000	  12.9989000000	  46.6902000000
N	  10.8115000000	  11.5987000000	  50.5836000000
S	  10.6986000000	  13.0931000000	  50.4328000000
O	  11.3364000000	  13.8534000000	  51.4563000000
O	  10.9583000000	  13.4897000000	  49.0716000000
C	   8.8980600000	  13.3568000000	  50.8447000000
F	   8.7855500000	  14.5730000000	  51.3614000000
F	   8.3798400000	  12.4903000000	  51.6610000000
F	   8.1291900000	  13.2811000000	  49.7701000000
S	  11.5597000000	  10.6700000000	  51.6303000000
O	  11.6472000000	  11.1953000000	  52.9653000000
O	  12.6728000000	   9.9912200000	  51.0268000000
C	  10.4170000000	   9.3280600000	  51.8393000000
F	   9.3082500000	   9.6770800000	  52.3844000000
F	  10.0811000000	   8.7762000000	  50.7035000000
F	  10.8256000000	   8.3562300000	  52.6749000000
S	  12.2512000000	   3.1506700000	  51.3142000000
S	  11.2813000000	   5.0413300000	  51.6194000000
S	  12.3965000000	   6.5764100000	  50.8652000000
S	  12.1142000000	   9.7278200000	  47.5682000000
S	  10.8222000000	  11.2405000000	  46.7496000000
S	  11.5321000000	  12.1799000000	  45.0055000000
S	  11.0444000000	   7.9589500000	  47.9571000000
S	  12.2586000000	   6.4414500000	  48.7451000000
