39

Li	  57.1583000000	  21.5154000000	  40.2555000000
O	  59.7801342534	  23.1433000000	  37.5137000000
O	  58.5355000000	  22.1736000000	  39.1215000000
C	  60.6057842534	  22.1013000000	  38.0471000000
C	  59.9236342534	  21.9074000000	  39.3729000000
C	  58.7735000000	  23.3610000000	  38.4111000000
H	  60.5555342534	  21.2302000000	  37.4489000000
H	  61.6405442534	  22.4819000000	  38.2774000000
H	  60.2158442534	  20.9593000000	  39.8340000000
H	  60.4588142534	  22.6292000000	  40.0278000000
H	  58.9764000000	  24.2445000000	  39.0748000000
H	  57.9438000000	  23.5762000000	  37.8502000000
O	  57.0674000000	  20.0577000000	  38.7969000000
O	  56.5846000000	  18.2400000000	  37.5765000000
C	  56.9214000000	  20.4081000000	  37.4045000000
C	  55.8832000000	  19.3777000000	  36.9913000000
C	  57.2561000000	  18.6832000000	  38.7514000000
H	  56.6484000000	  21.4400000000	  37.4579000000
H	  57.7696000000	  20.2115000000	  36.7037000000
H	  54.9491000000	  19.4244000000	  37.4875000000
H	  55.6797000000	  19.1821000000	  35.9470000000
H	  58.2724000000	  18.3049000000	  38.6493000000
H	  56.7180000000	  18.2602000000	  39.5730000000
S	  54.8942000000	  22.1012000000	  40.0876000000
S	  55.7939000000	  23.9377000000	  39.6525000000
S	  55.8157000000	  25.4795000000	  41.1664000000
S	  60.5762742534	  25.8728000000	  40.3804000000
S	  62.4441942534	  25.9130000000	  41.3684000000
S	  63.3578942534	  23.9477000000	  41.3053000000
S	  59.0398000000	  26.7656000000	  41.5089000000
S	  57.6139000000	  25.3976000000	  42.2843000000
S	  65.0019142534	  21.3902000000	  43.8251000000
S	  64.0076642534	  19.8107000000	  42.8890000000
S	  63.1200242534	  18.4569000000	  44.2154000000
S	  58.8359000000	  18.6813000000	  41.8663000000
S	  57.1154000000	  19.8859000000	  42.2054000000
S	  57.6055000000	  21.8849000000	  42.3508000000
S	  59.6622742534	  17.7950000000	  43.6397000000
S	  61.1701042534	  19.0217000000	  44.5408000000
