20

Li	  17.0649000000	  57.9385000000	  58.6882000000
O	  20.5478000000	  55.7467000000	  58.9022000000
O	  18.7104000000	  56.9888000000	  59.1346926784
C	  20.7794000000	  56.4498000000	  60.0936926784
C	  19.3582000000	  56.8347000000	  60.4351626784
C	  19.6293000000	  56.4929000000	  58.2456000000
H	  21.2776000000	  55.8491000000	  60.8010626784
H	  21.3833000000	  57.3866000000	  60.0404726784
H	  18.8989000000	  56.0335000000	  61.0756026784
H	  19.3452000000	  57.8267000000	  60.9709326784
H	  20.1005000000	  57.3027000000	  57.7914000000
H	  19.2068000000	  55.8354000000	  57.4765000000
S	  16.9802000000	  59.7615292776	  59.8480826784
S	  16.5214000000	  60.1521092776	  57.7601000000
S	  18.0885000000	  59.5112192776	  56.4646000000
S	  16.2381000000	  55.5978000000	  55.5664000000
S	  16.5549000000	  55.1900000000	  57.6658000000
S	  15.4703000000	  56.6542000000	  58.7206000000
S	  17.8599000000	  56.5640000000	  54.7395000000
S	  17.3661000000	  58.5357000000	  54.6107000000
