57

Li	  34.3500000000	  22.8809000000	  28.2081000000
O	  34.6061000000	  26.1160000000	  25.8277000000
O	  33.9566000000	  24.4009000000	  27.2057000000
C	  33.3276000000	  25.7276000000	  25.3613000000
C	  32.7875000000	  24.7080000000	  26.3923000000
C	  34.7112000000	  25.6134000000	  27.1275000000
H	  32.6921000000	  26.6562000000	  25.2330000000
H	  33.5911000000	  25.2971000000	  24.4212000000
H	  32.0194000000	  25.1605000000	  27.0141000000
H	  32.1923000000	  23.8856000000	  26.0259000000
H	  35.6988000000	  25.5389000000	  27.5094000000
H	  34.2315000000	  26.3039000000	  27.8340000000
N	  32.8353000000	  21.2641000000	  31.5666000000
S	  32.0241000000	  21.9164000000	  30.3675000000
O	  32.9042000000	  22.5602000000	  29.4339000000
O	  30.8928000000	  21.2303000000	  29.8392000000
C	  31.3067000000	  23.3259000000	  31.1228000000
F	  30.1931000000	  23.1231000000	  31.7496000000
F	  31.1629000000	  24.3130000000	  30.2812000000
F	  32.0837000000	  23.8945000000	  31.9774000000
S	  33.1254000000	  19.7313000000	  31.8394000000
O	  32.7274000000	  18.8455000000	  30.7321000000
O	  32.9897000000	  19.3170000000	  33.2260000000
C	  34.9611000000	  19.7025000000	  31.6898000000
F	  35.3007000000	  20.0847000000	  30.5320000000
F	  35.6520000000	  20.4363000000	  32.6123000000
F	  35.4390000000	  18.4982000000	  31.7251000000
N	  38.1546000000	  22.2506000000	  30.8671000000
S	  37.1858000000	  23.1561000000	  30.0503000000
O	  37.7612000000	  23.6919000000	  28.8428000000
O	  35.8011000000	  22.8085000000	  29.9983000000
C	  37.1757000000	  24.7029000000	  31.0372000000
F	  36.1678000000	  25.5125000000	  30.6581000000
F	  38.3409000000	  25.3336000000	  30.9069000000
F	  37.0729000000	  24.4236000000	  32.3094000000
S	  39.3504000000	  21.3485000000	  30.3744000000
O	  39.4681000000	  21.2242000000	  28.9392000000
O	  39.5283000000	  20.1507000000	  31.0975000000
C	  40.8000000000	  22.3976000000	  30.8104000000
F	  40.7969000000	  23.6514000000	  30.3129000000
F	  40.9751000000	  22.5423000000	  32.1241000000
F	  41.9129000000	  21.8229000000	  30.3349000000
N	  35.2511000000	  19.8277000000	  26.2534000000
S	  36.2375000000	  21.0295000000	  26.4974000000
O	  35.7241000000	  21.8979000000	  27.5234000000
O	  37.6632000000	  20.7707000000	  26.3833000000
C	  35.9550000000	  21.9966000000	  24.9852000000
F	  36.7500000000	  23.0540000000	  24.8956000000
F	  34.7091000000	  22.4605000000	  25.0113000000
F	  36.1514000000	  21.1888000000	  23.9236000000
S	  33.8339000000	  19.5801000000	  26.7652000000
O	  33.0339000000	  20.7794000000	  26.5121000000
O	  33.6891000000	  18.8641000000	  28.0081000000
C	  33.2837000000	  18.3369000000	  25.5412000000
F	  32.2001000000	  17.6852000000	  25.9353000000
F	  33.0563000000	  18.9291000000	  24.3402000000
F	  34.2322000000	  17.3860000000	  25.2794000000
