42

Li	  32.3490000000	  29.6181000000	  35.8523000000
O	  31.6738000000	  29.5863000000	  37.5671000000
O	  29.9507000000	  29.1561000000	  38.9926000000
C	  31.5546000000	  30.7305000000	  38.3187000000
C	  30.5406000000	  30.3286000000	  39.5077000000
C	  30.9582000000	  28.5553000000	  38.2364000000
H	  32.4722000000	  31.0508000000	  38.7814000000
H	  31.2581000000	  31.5911000000	  37.6256000000
H	  30.9317000000	  30.1320000000	  40.5001000000
H	  29.7483000000	  30.9677000000	  39.6769000000
H	  30.3966000000	  27.9226000000	  37.5006000000
H	  31.5704000000	  27.9192000000	  38.7676000000
N	  32.2639000000	  27.6198000000	  32.6759000000
S	  33.5322000000	  28.0155000000	  31.8230000000
O	  34.7723000000	  28.0452000000	  32.6334000000
O	  33.5823000000	  27.4878000000	  30.4764000000
C	  33.1373000000	  29.7732000000	  31.5610000000
F	  33.2304000000	  30.3697000000	  32.7505000000
F	  31.9750000000	  29.9646000000	  31.0352000000
F	  34.0354000000	  30.4283000000	  30.7272000000
S	  32.3336000000	  26.8662000000	  34.0729000000
O	  32.1098000000	  27.7433000000	  35.1563000000
O	  33.3178000000	  25.8490000000	  34.1571000000
C	  30.7246000000	  25.9346000000	  34.0085000000
F	  29.6227000000	  26.6597000000	  34.0090000000
F	  30.6886000000	  25.1736000000	  32.9583000000
F	  30.5050000000	  25.0378000000	  34.9703000000
N	  34.7514000000	  32.7436000000	  35.7698000000
S	  35.2666000000	  31.2682000000	  35.9551000000
O	  34.2713000000	  30.2866000000	  36.2376000000
O	  36.4312000000	  30.8927000000	  35.1629000000
C	  36.0804000000	  31.6222000000	  37.5391000000
F	  36.7445000000	  32.7165000000	  37.6508000000
F	  36.8938000000	  30.6230000000	  37.7770000000
F	  35.2018000000	  31.6263000000	  38.5777000000
S	  33.3749000000	  33.2191000000	  35.2975000000
O	  32.9012000000	  34.3503000000	  36.0448000000
O	  32.4874000000	  32.1026000000	  35.0109000000
C	  33.7384000000	  33.9215000000	  33.6196000000
F	  32.7036000000	  34.4183000000	  33.0483000000
F	  34.5782000000	  34.8842000000	  33.7367000000
F	  34.2713000000	  32.9489000000	  32.8795000000
