39

Li	  52.6009000000	  56.1887000000	  39.7194000000
O	  49.2685000000	  56.6533000000	  38.2322000000
O	  51.4656000000	  57.4204000000	  38.3428000000
C	  49.4140000000	  57.5615000000	  39.3015000000
C	  50.6809000000	  58.3671000000	  39.0267000000
C	  50.4593000000	  56.7547000000	  37.5550000000
H	  48.5056000000	  58.2616000000	  39.3981000000
H	  49.5462000000	  57.0225000000	  40.2461000000
H	  50.4452000000	  59.1210452776	  38.2329000000
H	  51.1750000000	  58.8531000000	  39.8886000000
H	  50.7813000000	  55.8238000000	  37.1452000000
H	  50.2775000000	  57.4424000000	  36.7232000000
O	  51.1395000000	  55.2253000000	  40.3139000000
O	  50.4141000000	  53.6246000000	  41.7426000000
C	  50.6732000000	  54.0695000000	  39.6129000000
C	  50.7298000000	  52.8936000000	  40.5881000000
C	  51.0655000000	  54.8370000000	  41.6069000000
H	  49.6498000000	  54.2736000000	  39.2907000000
H	  51.1717000000	  53.8477000000	  38.6730000000
H	  50.1770000000	  51.9540000000	  40.5148000000
H	  51.8012000000	  52.6219000000	  40.6874000000
H	  52.1049000000	  54.7872000000	  41.9077000000
H	  50.6344000000	  55.6078000000	  42.2247000000
S	  44.3433000000	  58.0919000000	  44.3606000000
S	  46.1846000000	  57.3638000000	  45.0975000000
S	  47.7684000000	  58.7859000000	  44.8388000000
S	  52.6656000000	  57.9683000000	  44.1640000000
S	  52.6042000000	  58.5947000000	  42.2038000000
S	  53.7938000000	  57.2677000000	  41.0577000000
S	  50.8353000000	  57.0155000000	  44.6997000000
S	  49.4805000000	  58.0782000000	  45.9095000000
S	  53.7321000000	  55.2855000000	  37.8835000000
S	  54.4759000000	  54.1012000000	  39.5157000000
S	  54.7178000000	  52.0415000000	  38.8879000000
S	  56.0974000000	  50.3517000000	  42.3941000000
S	  53.9753000000	  49.9993000000	  42.4150000000
S	  53.3554000000	  48.0622000000	  43.1296000000
S	  56.8873000000	  49.8127000000	  40.5909000000
S	  56.7411000000	  51.4354000000	  39.3477000000
