65

Li	  56.3743000000	  28.4190000000	  35.6976000000
O	  56.8191000000	  27.8549000000	  37.3926000000
O	  56.1514000000	  27.6293000000	  39.4287000000
C	  57.3255000000	  29.0143000000	  38.1024000000
C	  57.0191000000	  28.7996000000	  39.5472000000
C	  56.7275000000	  26.8990000000	  38.3789000000
H	  58.3538000000	  29.3005000000	  37.8431000000
H	  56.6605000000	  29.7631000000	  37.6759000000
H	  57.9973000000	  28.5430000000	  39.8218000000
H	  56.5803000000	  29.6238000000	  40.0837000000
H	  56.0932000000	  26.0467000000	  38.0163000000
H	  57.6863000000	  26.4689000000	  38.6328000000
N	  51.7370000000	  28.0129000000	  37.0301000000
S	  50.5125000000	  27.1331000000	  37.5064000000
O	  49.4341000000	  27.0192000000	  36.5213000000
O	  50.8857000000	  25.8657000000	  38.0495000000
C	  49.8381000000	  28.0901000000	  38.8845000000
F	  48.7378000000	  27.6105000000	  39.3685000000
F	  49.5764000000	  29.3553000000	  38.4486000000
F	  50.6151000000	  28.1093000000	  39.8868000000
S	  53.2158000000	  28.0606000000	  37.5915000000
O	  54.2619000000	  28.0731000000	  36.5416000000
O	  53.4543000000	  27.2855000000	  38.7511000000
C	  53.2043000000	  29.7649000000	  38.1656000000
F	  53.0526000000	  30.5676000000	  37.1884000000
F	  52.2410000000	  30.0953000000	  39.0160000000
F	  54.2983000000	  30.1347000000	  38.8152000000
N	  60.6157442534	  30.0044000000	  36.3945000000
S	  61.8265142534	  30.9944000000	  36.2650000000
O	  62.4472042534	  31.1352000000	  37.5818000000
O	  62.6901142534	  30.8915000000	  35.1134000000
C	  60.8937442534	  32.5224000000	  35.9512000000
F	  60.1701942534	  32.4746000000	  34.8280000000
F	  61.6063942534	  33.5673000000	  35.8722000000
F	  59.9987742534	  32.6498000000	  36.9611000000
S	  60.1469142534	  28.8644000000	  35.4512000000
O	  60.9594642534	  28.6767000000	  34.2771000000
O	  58.6934000000	  28.6923000000	  35.3472000000
C	  60.5313642534	  27.2819000000	  36.3881000000
F	  60.0797442534	  27.4308000000	  37.6262000000
F	  59.9675942534	  26.2136000000	  35.8857000000
F	  61.8256142534	  27.0426000000	  36.4897000000
N	  56.8184000000	  30.6969000000	  32.6509000000
S	  56.6614000000	  31.1307000000	  34.1324000000
O	  56.0882000000	  30.0956000000	  34.9654000000
O	  57.6620000000	  31.9827000000	  34.7585000000
C	  55.3019000000	  32.3721000000	  33.9893000000
F	  54.2783000000	  31.8142000000	  33.3885000000
F	  55.6070000000	  33.3381000000	  33.1024000000
F	  55.0063000000	  32.9194000000	  35.1354000000
S	  58.0239000000	  30.5205000000	  31.7213000000
O	  57.7750000000	  29.8021000000	  30.5324000000
O	  59.2708942534	  30.2253000000	  32.3971000000
C	  58.2430000000	  32.2268000000	  31.0624000000
F	  57.1421000000	  32.8030000000	  30.6826000000
F	  58.5491000000	  32.9217000000	  32.1304000000
F	  59.1656942534	  32.3869000000	  30.1272000000
S	  56.3553000000	  26.4625000000	  34.3070000000
S	  54.7982000000	  24.9837000000	  34.8871000000
S	  53.6236000000	  24.0312000000	  33.4223000000
S	  56.0402000000	  20.1494000000	  31.4097000000
S	  55.6719000000	  18.2325000000	  30.4183000000
S	  56.7251000000	  18.1103000000	  28.5590000000
S	  54.2853000000	  21.3059000000	  31.5433000000
S	  54.0747000000	  22.0263000000	  33.5426000000
