49

Li	  48.5284000000	  22.0446000000	  22.6082000000
O	  49.9101000000	  23.8592000000	  26.2689000000
O	  49.0624000000	  22.6194000000	  24.6128000000
C	  48.5487000000	  23.6051000000	  26.5879000000
C	  48.2099000000	  22.3754000000	  25.7439000000
C	  50.0066000000	  23.5600000000	  24.9140000000
H	  48.3014000000	  23.4018000000	  27.6219000000
H	  48.0342000000	  24.4546000000	  26.2703000000
H	  48.5655000000	  21.5228000000	  26.3987000000
H	  47.1194000000	  22.2110000000	  25.5793000000
H	  49.7631000000	  24.5193000000	  24.3909000000
H	  50.9977000000	  23.1478000000	  24.6176000000
O	  48.7082000000	  18.1912000000	  23.7739000000
O	  48.1925000000	  20.1623000000	  22.7071000000
C	  47.8060000000	  17.9192000000	  22.7133000000
C	  48.0255000000	  19.1206000000	  21.8280000000
C	  48.4599000000	  19.5292000000	  23.9511000000
H	  48.1307000000	  16.9808000000	  22.2549000000
H	  46.8041000000	  17.8671000000	  23.1208000000
H	  48.9792000000	  19.0993000000	  21.2145000000
H	  47.1304000000	  19.1815000000	  21.1761000000
H	  47.6171000000	  19.5345000000	  24.7135000000
H	  49.2775000000	  20.0159000000	  24.4207000000
O	  51.9185000000	  23.7128000000	  21.0905000000
O	  49.7933000000	  22.8721000000	  21.4777000000
C	  51.1904000000	  24.8759000000	  21.5017000000
C	  49.6930000000	  24.3159000000	  21.4723000000
C	  50.9841000000	  22.6887000000	  20.7432000000
H	  51.5471000000	  25.0963000000	  22.4765000000
H	  51.4068000000	  25.6815000000	  20.8089000000
H	  49.0376000000	  24.7187000000	  22.3257000000
H	  49.2516000000	  24.6812000000	  20.5633000000
H	  50.7229000000	  22.7456000000	  19.7424000000
H	  51.5180000000	  21.7733000000	  21.1297000000
N	  45.1664000000	  22.3060000000	  20.8872000000
S	  46.3088000000	  22.0893000000	  19.7994000000
O	  47.6442000000	  21.8052000000	  20.2841000000
O	  45.8177000000	  21.1802000000	  18.8276000000
C	  46.4069000000	  23.6790000000	  18.8669000000
F	  45.1531000000	  24.0613000000	  18.5394000000
F	  47.1478000000	  23.5716000000	  17.7734000000
F	  46.8390000000	  24.6691000000	  19.6063000000
S	  45.2453000000	  22.4531000000	  22.3707000000
O	  44.3445000000	  23.3636000000	  22.9679000000
O	  46.5511000000	  22.2850000000	  22.9285000000
C	  44.5137000000	  20.8499000000	  22.8763000000
F	  45.1298000000	  19.7858000000	  22.4263000000
F	  44.4395000000	  20.6774000000	  24.1672000000
F	  43.2519000000	  20.7756000000	  22.4510000000
