79

Li	   9.9086200000	   6.6297200000	  12.7454000000
O	  10.2448000000	   4.9249700000	  13.4202000000
O	  10.6381000000	   2.6326300000	  12.8604000000
C	   9.9608300000	   4.0099000000	  14.5069000000
C	   9.6586100000	   2.6475300000	  13.9424000000
C	  10.9147000000	   3.9703400000	  12.6374000000
H	  10.9023000000	   3.9605900000	  15.1845000000
H	   8.9533300000	   4.3681300000	  14.9909000000
H	   9.5841000000	   1.7341700000	  14.5465000000
H	   8.7364200000	   2.6558900000	  13.4711000000
H	  10.6313000000	   4.1333400000	  11.5973000000
H	  12.0506000000	   4.0868100000	  12.7658000000
O	  11.6804000000	   7.6551100000	  13.5033000000
O	  13.3175000000	   9.0776600000	  14.1255000000
C	  12.6045000000	   6.9262200000	  14.2060000000
C	  13.8232000000	   7.7664400000	  13.9432000000
C	  12.0379000000	   8.9491200000	  13.4404000000
H	  12.3048000000	   6.8563900000	  15.2527000000
H	  12.7128000000	   5.9508100000	  13.8662000000
H	  14.8057000000	   7.5776000000	  14.5533000000
H	  14.0842000000	   7.7339100000	  12.9446000000
H	  12.1733000000	   9.3991200000	  12.4293000000
H	  11.2505000000	   9.4334700000	  13.9558000000
O	   5.9075000000	   5.4874200000	  11.5054000000
O	   8.1756900000	   5.3672200000	  11.9096000000
C	   6.5090500000	   4.6423100000	  10.4883000000
C	   8.0489200000	   4.8317900000	  10.5827000000
C	   6.9144100000	   5.6723800000	  12.4322000000
H	   6.3547200000	   3.6108500000	  10.8721000000
H	   6.1650100000	   4.8908800000	   9.5491300000
H	   8.7573400000	   4.0410400000	  10.3263000000
H	   8.2315200000	   5.6769900000	   9.8812600000
H	   6.9150200000	   6.6750200000	  12.6951000000
H	   6.8533900000	   5.1056600000	  13.3633000000
N	   6.7710900000	   8.8697500000	  10.8418000000
S	   6.1587900000	   8.2228500000	   9.5333600000
O	   7.0837800000	   7.6957000000	   8.5275800000
O	   4.9519700000	   7.5126200000	   9.7673900000
C	   5.5245100000	   9.7060100000	   8.7411400000
F	   5.2228700000	   9.4775000000	   7.4658300000
F	   6.4299400000	  10.6635000000	   8.6444000000
F	   4.4775600000	  10.2062000000	   9.4145500000
S	   8.2914700000	   9.1583800000	  10.9357000000
O	   9.0534100000	   9.4206900000	   9.7557100000
O	   8.9444800000	   8.3799500000	  11.9754000000
C	   8.4500600000	  10.7801000000	  11.6894000000
F	   9.6362900000	  11.0699000000	  12.2086000000
F	   8.3504100000	  11.7338000000	  10.7673000000
F	   7.5921200000	  11.0313000000	  12.6161000000
N	   9.2480700000	   7.8911600000	  16.8072000000
S	   9.6621800000	   6.5091300000	  17.3641000000
O	   8.7091100000	   5.4313100000	  17.2190000000
O	  11.0371000000	   6.1086100000	  17.3072000000
C	   9.4889800000	   6.8036000000	  19.2150000000
F	  10.3158000000	   7.8218100000	  19.5730000000
F	   9.9474200000	   5.7234100000	  19.9100000000
F	   8.1877200000	   7.0612300000	  19.5490000000
S	   8.9290600000	   8.3344000000	  15.3569000000
O	   9.1774400000	   7.2914500000	  14.4435000000
O	   9.2217100000	   9.7294900000	  15.1111000000
C	   7.1170300000	   8.2987700000	  15.4754000000
F	   6.5344500000	   8.5792500000	  14.3189000000
F	   6.6798800000	   7.0945000000	  15.7635000000
F	   6.6108200000	   9.1010500000	  16.3837000000
N	  12.5031000000	   5.8737200000	   8.7974700000
S	  11.5440000000	   7.0133700000	   9.2071800000
O	  10.7579000000	   7.5737100000	   8.1586800000
O	  10.8005000000	   6.6597200000	  10.3896000000
C	  12.6494000000	   8.3781500000	   9.6472200000
F	  11.9375000000	   9.4660200000	   9.8831600000
F	  13.5671000000	   8.6669100000	   8.7558400000
F	  13.3565000000	   8.1214900000	  10.7035000000
S	  12.4722000000	   4.8791600000	   7.5645900000
O	  13.7118000000	   4.9815600000	   6.7880600000
O	  11.2242000000	   4.7128000000	   6.9285500000
C	  12.6433000000	   3.2926800000	   8.4450000000
F	  13.8429000000	   3.2183300000	   9.0305800000
F	  11.7499000000	   3.0867900000	   9.3820600000
F	  12.5200000000	   2.2869100000	   7.5874800000
