68

Li	  53.0294000000	   6.6806500000	   7.5341000000
O	  55.4847000000	   9.4747100000	   9.2519400000
O	  54.4874000000	   7.5521700000	   8.7311300000
C	  54.7054000000	   9.2003700000	  10.3793000000
C	  53.9307000000	   7.9008400000	  10.0165000000
C	  55.7163000000	   8.1922700000	   8.7903800000
H	  55.2667000000	   9.1478600000	  11.3381000000
H	  54.0232000000	  10.0908000000	  10.4702000000
H	  54.0923000000	   7.0546800000	  10.7702000000
H	  52.8938000000	   8.0773300000	   9.8956000000
H	  56.1239000000	   8.1346200000	   7.8198000000
H	  56.4360000000	   7.6040100000	   9.3811600000
O	  57.0723000000	   5.8697400000	   7.6314700000
O	  55.0505000000	   5.3688000000	   6.7502700000
C	  56.6485000000	   4.7971200000	   8.3863600000
C	  55.2301000000	   4.5709100000	   7.9309700000
C	  56.3835000000	   5.7385800000	   6.4635600000
H	  57.2694000000	   4.0405000000	   8.0739200000
H	  56.6565000000	   5.0172300000	   9.5175800000
H	  54.8008000000	   3.5817500000	   7.8032300000
H	  54.6054000000	   4.9866800000	   8.7658600000
H	  56.3729000000	   6.6363600000	   5.8261500000
H	  56.6747000000	   4.9000200000	   5.8507500000
N	  51.0927000000	  10.3708000000	   8.5647800000
S	  50.4887000000	   9.1358600000	   7.8198700000
O	  49.6070000000	   9.3342000000	   6.6733200000
O	  51.4763000000	   8.0860600000	   7.8076600000
C	  49.2950000000	   8.5744000000	   9.1853800000
F	  48.2655000000	   9.3523500000	   9.2103800000
F	  49.7897000000	   8.5767700000	  10.4245000000
F	  48.8329000000	   7.4131200000	   8.9137600000
S	  50.7779000000	  11.8694000000	   8.3796100000
O	  49.5341000000	  12.2634000000	   8.9990700000
O	  51.1251000000	  12.3906000000	   7.0662000000
C	  51.9300000000	  12.5330000000	   9.5892700000
F	  51.4661000000	  12.2987000000	  10.8441000000
F	  53.1082000000	  11.9856000000	   9.5308100000
F	  52.1372000000	  13.8479000000	   9.5083200000
N	  51.8642000000	   8.1943300000	   4.2824300000
S	  53.0430000000	   8.8559400000	   5.0373300000
O	  52.7315000000	  10.2990000000	   5.2511600000
O	  53.7902000000	   8.1304100000	   6.0430400000
C	  54.3730000000	   8.8993500000	   3.7657300000
F	  54.2068000000	   9.8865100000	   2.9347000000
F	  54.3264000000	   7.7486200000	   3.0524000000
F	  55.5272000000	   9.0146800000	   4.2880100000
S	  51.1574000000	   6.8387400000	   4.8138700000
O	  49.7767000000	   6.9484900000	   5.1522200000
O	  51.9557000000	   5.9084500000	   5.6163800000
C	  51.0135000000	   5.8936500000	   3.2773700000
F	  50.4363000000	   4.7341700000	   3.5173100000
F	  50.4064000000	   6.5038100000	   2.2433600000
F	  52.2246000000	   5.5829200000	   2.7493600000
N	  51.3299000000	   3.0262100000	   8.3698600000
S	  51.1042000000	   4.3557400000	   9.1674000000
O	  51.8037000000	   5.4383400000	   8.5703600000
O	  49.7636000000	   4.6740700000	   9.6703200000
C	  52.0637000000	   3.9479200000	  10.6345000000
F	  52.5467000000	   4.9881600000	  11.2390000000
F	  53.0823000000	   3.0732000000	  10.4726000000
F	  51.1752000000	   3.3642600000	  11.4069000000
S	  50.1684000000	   2.0593600000	   7.9681700000
O	  48.8408000000	   2.5343300000	   8.2109800000
O	  50.5343000000	   0.6862007224	   8.2907600000
C	  50.2767000000	   2.1299000000	   6.1420400000
F	  51.4651000000	   2.0015200000	   5.6470600000
F	  49.6691000000	   1.0435000000	   5.6895700000
F	  49.8024000000	   3.1886600000	   5.5415800000
