31

Li	  11.7542000000	  10.2720000000	  43.2514000000
O	  12.8702000000	   8.8114800000	  44.0003000000
O	  13.6741000000	   7.0048500000	  45.0976000000
C	  13.3624000000	   7.8759900000	  43.0384000000
C	  13.3034000000	   6.6005200000	  43.8522000000
C	  13.1060000000	   8.2617000000	  45.2459000000
H	  12.7752000000	   8.0081100000	  42.0699000000
H	  14.4142000000	   8.1774400000	  42.8321000000
H	  12.2843000000	   6.1513300000	  43.9317000000
H	  14.0289000000	   5.8632800000	  43.5300000000
H	  13.6887000000	   8.9934700000	  45.8129000000
H	  12.0969000000	   8.2885500000	  45.6945000000
O	   9.9127400000	   9.9592000000	  43.0815000000
O	   7.9842800000	  10.3257000000	  42.0811000000
C	   9.0653700000	   8.9698400000	  43.6617000000
C	   7.7390500000	   9.1323800000	  42.9375000000
C	   9.0742700000	  10.9999000000	  42.6079000000
H	   9.4722100000	   7.9183700000	  43.4561000000
H	   9.0673200000	   9.1667700000	  44.7112000000
H	   7.3389100000	   8.1922900000	  42.5438000000
H	   6.9780300000	   9.5450300000	  43.6326000000
H	   8.7128300000	  11.5122000000	  43.4990000000
H	   9.4103600000	  11.7869000000	  41.9526000000
S	  12.4960000000	  11.1261000000	  41.4590000000
S	  14.2023000000	  12.3844000000	  41.8725000000
S	  15.9812000000	  11.3855000000	  41.8341000000
S	  20.1770000000	  10.4412000000	  40.5666000000
S	  21.9320000000	  11.0662000000	  39.6830000000
S	  23.2716000000	   9.4514900000	  39.3410000000
S	  18.3828000000	  10.8333000000	  39.4104000000
S	  17.0971000000	  12.2452000000	  40.3004000000
