49

Li	  15.5584000000	   7.2491700000	  45.8437000000
O	  18.9024000000	   5.7404800000	  44.3640000000
O	  17.3091000000	   6.8323200000	  45.4485000000
C	  19.4962000000	   6.4165500000	  45.4839000000
C	  18.4168000000	   7.4953400000	  45.7264000000
C	  17.5576000000	   6.1220900000	  44.2751000000
H	  19.5393000000	   5.7147300000	  46.2981000000
H	  20.5601000000	   6.7609000000	  45.3491000000
H	  18.2777000000	   7.9095600000	  46.7237000000
H	  18.6518000000	   8.3147800000	  45.0902000000
H	  17.3366000000	   6.7841500000	  43.4553000000
H	  16.8765000000	   5.2861200000	  44.1970000000
O	  13.1007000000	   9.3132000000	  43.7191000000
O	  14.7121000000	   8.0583600000	  44.5291000000
C	  13.1336000000	   8.3407600000	  42.7711000000
C	  14.4303000000	   7.7515900000	  43.1633000000
C	  13.6749000000	   8.8019600000	  44.9173000000
H	  12.2121000000	   7.6900200000	  42.7512000000
H	  13.2699000000	   8.8119100000	  41.7982000000
H	  14.5218000000	   6.6394300000	  42.8848000000
H	  15.2874000000	   8.3278700000	  42.7582000000
H	  14.0307000000	   9.6098100000	  45.5969000000
H	  12.8399000000	   8.3229200000	  45.4236000000
O	  14.5439000000	   3.5139800000	  46.7385000000
O	  14.7599000000	   5.6023100000	  46.0121000000
C	  14.0300000000	   3.4510200000	  45.3834000000
C	  13.7920000000	   4.9255300000	  45.1842000000
C	  14.9154000000	   4.7716800000	  47.0742000000
H	  14.8385000000	   3.0871700000	  44.8034000000
H	  13.0980000000	   2.8252100000	  45.2607000000
H	  13.8761000000	   5.2723900000	  44.2096000000
H	  12.8917000000	   5.3391900000	  45.6343000000
H	  14.3350000000	   5.1947900000	  47.9415000000
H	  15.9708000000	   4.6010800000	  47.4398000000
N	  17.1780000000	   8.7022900000	  49.1940000000
S	  17.6229000000	   7.9136900000	  50.4536000000
O	  18.7552000000	   8.5779600000	  51.0747000000
O	  16.5808000000	   7.2837000000	  51.2221000000
C	  18.3414000000	   6.4519500000	  49.6192000000
F	  17.5591000000	   5.8737400000	  48.7349000000
F	  18.5975000000	   5.4152200000	  50.4430000000
F	  19.4646000000	   6.7351100000	  48.8801000000
S	  15.7558000000	   9.0897100000	  48.6509000000
O	  14.8222000000	   9.1296200000	  49.7579000000
O	  15.5066000000	   8.3569900000	  47.4527000000
C	  16.0766000000	  10.7900000000	  48.1326000000
F	  16.6020000000	  10.8929000000	  46.9258000000
F	  14.9113000000	  11.4249000000	  48.1549000000
F	  16.8402000000	  11.4286000000	  48.9165000000
