39

Li	  58.1464000000	  21.8524000000	  14.4859000000
N	  56.7684000000	  22.2351000000	  10.4192000000
S	  55.5713000000	  22.2628000000	   9.3490000000
O	  54.8987000000	  20.9808000000	   9.1963400000
O	  54.8422000000	  23.5393000000	   9.3802700000
C	  56.3848000000	  22.4316000000	   7.6933500000
F	  57.5546000000	  21.8961000000	   7.7886800000
F	  56.6030000000	  23.6574000000	   7.4218900000
F	  55.8146000000	  21.8359000000	   6.6476500000
S	  57.0362000000	  21.1742000000	  11.5361000000
O	  56.0378000000	  20.1032000000	  11.5770000000
O	  57.5550000000	  21.7705000000	  12.7653000000
C	  58.5208000000	  20.3084000000	  10.9985000000
F	  58.9987000000	  19.5237000000	  11.9384000000
F	  58.3159000000	  19.5724000000	   9.8995700000
F	  59.6120142534	  21.1550000000	  10.7552000000
N	  60.4074342534	  19.7968000000	  16.1945000000
S	  58.9205000000	  19.3141000000	  16.2896000000
O	  58.4507000000	  18.8888000000	  17.5870000000
O	  58.0634000000	  20.0908000000	  15.4387000000
C	  58.9111000000	  17.7159000000	  15.3817000000
F	  59.2333292534	  17.8711000000	  14.0848000000
F	  57.7493000000	  17.1570000000	  15.4393000000
F	  59.7625342534	  16.8754000000	  15.8676000000
S	  61.0222542534	  21.0489000000	  15.3781000000
O	  61.9490042534	  21.8248000000	  16.1703000000
O	  60.0880542534	  21.8466000000	  14.6114000000
C	  62.0127742534	  20.2480000000	  14.1206000000
F	  61.2750042534	  19.7781000000	  13.1539000000
F	  62.8512342534	  21.0574000000	  13.6171000000
F	  62.6700242534	  19.2508000000	  14.6390000000
S	  47.1444000000	  18.9316000000	  17.1592000000
S	  48.5524000000	  19.6910000000	  15.7411000000
S	  50.1538000000	  20.6848000000	  16.8053000000
S	  55.1573000000	  20.8130000000	  16.4187000000
S	  55.5131000000	  22.8019000000	  15.8829000000
S	  57.4984000000	  23.4578000000	  15.9125000000
S	  53.5978000000	  20.5026000000	  17.8039000000
S	  51.8675000000	  19.5279000000	  16.9356000000
