39

Li	  48.3073000000	  40.2628000000	  39.1231000000
O	  46.6956000000	  39.8737000000	  38.5212000000
O	  46.5207000000	  39.3349000000	  36.3178000000
C	  45.6829000000	  40.7564000000	  38.0397000000
C	  45.4535000000	  40.3742000000	  36.5528000000
C	  46.6904000000	  38.8098000000	  37.6424000000
H	  44.8104000000	  40.7589000000	  38.6919000000
H	  46.0048000000	  41.7844000000	  38.0471000000
H	  44.4414000000	  40.0213000000	  36.5773000000
H	  45.5541000000	  41.2503000000	  35.8986000000
H	  47.6386000000	  38.2586000000	  37.6087000000
H	  45.9230000000	  38.1476000000	  37.9727000000
O	  49.1453000000	  42.7944000000	  36.1321000000
O	  49.3390000000	  41.2521000000	  37.7188000000
C	  49.0755000000	  41.5218000000	  35.5021000000
C	  49.6926000000	  40.5753000000	  36.5388000000
C	  49.6443000000	  42.5938000000	  37.3618000000
H	  48.0377000000	  41.2475000000	  35.3638000000
H	  49.6400000000	  41.6605000000	  34.5415000000
H	  49.3044000000	  39.5771000000	  36.3664000000
H	  50.8218000000	  40.5464000000	  36.4496000000
H	  50.7308000000	  42.6891000000	  37.3415000000
H	  49.3189000000	  43.4598000000	  37.9782000000
S	  49.7362000000	  38.6297000000	  39.5481000000
S	  51.6120000000	  39.3037000000	  39.0061000000
S	  52.2873000000	  40.7265000000	  40.3079000000
S	  55.4684000000	  43.2550000000	  42.5809000000
S	  57.2698000000	  42.8402000000	  43.4996000000
S	  57.0974000000	  41.3984000000	  45.0727000000
S	  55.2710000000	  42.4801000000	  40.6377000000
S	  54.2731000000	  40.5968000000	  40.7235000000
S	  47.7510000000	  41.3014000000	  41.1991000000
S	  48.6600000000	  43.1246000000	  41.4759000000
S	  47.8054000000	  44.5664000000	  40.3019000000
S	  46.8799000000	  47.3746000000	  43.9230000000
S	  46.9196000000	  49.3206000000	  44.5036000000
S	  48.8514000000	  49.9891000000	  44.8184000000
S	  46.5777000000	  47.3782000000	  41.8711000000
S	  48.0720000000	  46.5447000000	  40.7427000000
