53

Li	   8.7119500000	  32.5719000000	  34.6941000000
O	   7.7600000000	  32.3134000000	  36.4932000000
O	   6.3267100000	  32.3637000000	  38.2540000000
C	   7.0192800000	  31.0122000000	  36.5909000000
C	   6.3113900000	  31.0470000000	  37.9278000000
C	   7.5690800000	  32.8303000000	  37.7786000000
H	   6.3014300000	  30.9479000000	  35.8079000000
H	   7.6548900000	  30.1266000000	  36.6911000000
H	   5.3279600000	  30.6643000000	  37.9966000000
H	   6.9004800000	  30.5082000000	  38.5810000000
H	   8.4417100000	  32.4875000000	  38.3413000000
H	   7.4105000000	  33.9334000000	  37.7659000000
O	   9.9763900000	  33.7948000000	  34.3419000000
O	  11.4961000000	  35.4961000000	  34.1381000000
C	  10.4293000000	  33.7681000000	  32.9920000000
C	  11.1657000000	  35.1228000000	  32.8432000000
C	  10.4560000000	  35.0269000000	  34.9362000000
H	  11.0276000000	  32.9341000000	  32.9289000000
H	   9.6685200000	  33.7956000000	  32.2129000000
H	  12.0841000000	  35.0610000000	  32.2166000000
H	  10.6038000000	  35.9305000000	  32.2956000000
H	   9.6105000000	  35.7218000000	  34.9237000000
H	  10.8036000000	  34.8190000000	  36.0004000000
N	  12.2608000000	  29.7504000000	  34.8104000000
S	  12.6089000000	  28.5556000000	  33.7432000000
O	  11.9881000000	  27.2722000000	  34.1007000000
O	  12.6776000000	  29.0164000000	  32.3874000000
C	  14.3935000000	  28.1123000000	  34.0766000000
F	  14.4485000000	  27.5015000000	  35.2884000000
F	  15.2193000000	  29.1673000000	  34.1436000000
F	  15.0349000000	  27.2456000000	  33.2464000000
S	  10.8907000000	  30.1090000000	  35.5641000000
O	  10.0860000000	  28.9201000000	  35.8935000000
O	  10.0816000000	  31.1950000000	  35.0651000000
C	  11.5681000000	  30.6069000000	  37.2228000000
F	  11.9395000000	  29.5342000000	  37.8970000000
F	  12.5909000000	  31.4413000000	  37.1204000000
F	  10.6187000000	  31.1959000000	  37.9996000000
N	   5.8085000000	  33.1014000000	  32.5828000000
S	   5.9855400000	  34.1864000000	  33.7216000000
O	   4.7042500000	  34.7187000000	  34.2398000000
O	   7.0685400000	  33.8929000000	  34.6247000000
C	   6.7152000000	  35.6358000000	  32.8542000000
F	   7.1024900000	  36.6374000000	  33.7110000000
F	   5.9464000000	  36.1759000000	  31.9449000000
F	   7.8491900000	  35.3011000000	  32.2454000000
S	   6.6289900000	  31.8153000000	  32.2471000000
O	   5.8115200000	  30.6218000000	  32.2063000000
O	   7.8628200000	  31.6909000000	  33.0130000000
C	   7.1122100000	  32.1301000000	  30.5460000000
F	   6.0042700000	  32.0961000000	  29.7694000000
F	   7.6486700000	  33.3192000000	  30.3896000000
F	   7.8606000000	  31.1450000000	  30.1194000000
