60

Li	  47.9400000000	  51.6352000000	   2.2704100000
O	  49.4730000000	  52.1004000000	   3.0161400000
O	  51.1852000000	  53.4892000000	   3.4461000000
C	  50.6505000000	  51.5045000000	   2.4758200000
C	  51.8407000000	  52.2311000000	   3.0897800000
C	  49.9195000000	  53.0652000000	   3.8480800000
H	  50.6794000000	  50.4274000000	   2.6793600000
H	  50.4867000000	  51.6088000000	   1.3827200000
H	  52.2425000000	  51.7352000000	   3.9894300000
H	  52.7341000000	  52.3070000000	   2.4237900000
H	  49.3003000000	  53.9051000000	   3.9600200000
H	  50.0222000000	  52.5521000000	   4.8234400000
O	  47.7912000000	  49.8652000000	   3.2864300000
O	  47.9495000000	  48.4492000000	   5.1086500000
C	  47.8504000000	  48.5619000000	   2.8155400000
C	  48.4810000000	  47.8148000000	   3.9404800000
C	  47.6453000000	  49.7692000000	   4.6932200000
H	  46.8454000000	  48.3013000000	   2.6394200000
H	  48.4096000000	  48.4908000000	   1.9031100000
H	  48.1486000000	  46.7871000000	   3.7850100000
H	  49.5087000000	  47.8528000000	   3.8477500000
H	  48.3755000000	  50.3616000000	   5.1176100000
H	  46.6376000000	  50.0847000000	   5.0072200000
O	  45.6666000000	  49.3262000000	   0.2653873216
O	  46.9940000000	  50.9676000000	   0.9047873216
C	  46.3506000000	  49.7264000000	  -0.8951126784
C	  47.5142000000	  50.5781000000	  -0.3781126784
C	  45.6774000000	  50.5190000000	   0.9632720000
H	  46.6747000000	  48.8893000000	  -1.5592126784
H	  45.5806000000	  50.3010000000	  -1.3968126784
H	  48.3933000000	  49.9787000000	  -0.1823126784
H	  47.8351000000	  51.3965000000	  -1.0040126784
H	  45.0373000000	  51.3454000000	   0.6792873216
H	  45.4670000000	  50.2730000000	   1.9341100000
O	  48.7257000000	  53.4882000000	   0.9414650000
O	  49.5949000000	  54.9060000000	  -0.6746126784
C	  47.7763000000	  54.4762000000	   0.5886873216
C	  48.5146000000	  55.6033000000	  -0.0235126784
C	  49.8284000000	  53.7278000000	   0.1101873216
H	  47.2722000000	  53.9090000000	  -0.1452126784
H	  47.0290000000	  54.7968000000	   1.3380800000
H	  47.9664000000	  56.1553000000	  -0.7881126784
H	  48.9834000000	  56.3810000000	   0.6971873216
H	  50.7327000000	  53.7493000000	   0.7044873216
H	  49.9505000000	  52.9028000000	  -0.6076126784
N	  46.1822000000	  52.8433000000	   5.2766100000
S	  46.8924000000	  53.3148000000	   6.5741100000
O	  48.3109000000	  53.3528000000	   6.3707900000
O	  46.3000000000	  54.4828000000	   7.2186300000
C	  46.5318000000	  51.9372000000	   7.7739200000
F	  46.5297000000	  50.7309000000	   7.2995800000
F	  45.3227000000	  52.0187000000	   8.2859400000
F	  47.3196000000	  51.9095000000	   8.8220500000
S	  46.1325000000	  53.6308000000	   3.9473700000
O	  46.4957000000	  52.8234000000	   2.8297800000
O	  46.8422000000	  54.8931000000	   4.0262400000
C	  44.4570000000	  54.0467000000	   3.6923800000
F	  43.6059000000	  53.0175000000	   3.6311300000
F	  43.9627000000	  54.8543000000	   4.5854300000
F	  44.3451000000	  54.6970000000	   2.5291200000
