42

Li	  39.6835000000	  25.8829000000	   2.1139600000
O	  41.2055000000	  26.5141000000	   2.9844800000
O	  42.5293000000	  26.6488000000	   4.8969500000
C	  42.5476000000	  26.8461000000	   2.6836100000
C	  43.2205000000	  27.4252000000	   3.9131300000
C	  41.1936000000	  26.6618000000	   4.3865700000
H	  42.9620000000	  25.9056000000	   2.2660400000
H	  42.6740000000	  27.6118000000	   1.8789300000
H	  44.2738000000	  27.2486000000	   3.9268100000
H	  43.0971000000	  28.5371000000	   4.1058000000
H	  40.8405000000	  27.6873000000	   4.4655300000
H	  40.5621000000	  25.9097000000	   4.8050100000
O	  40.0135000000	  24.1164000000	   1.3606500000
O	  40.3467000000	  22.0385000000	   1.9655900000
C	  40.7938000000	  23.4895000000	   0.3197629520
C	  41.0814000000	  22.0635000000	   0.7155629520
C	  39.3978000000	  23.0477000000	   1.9530400000
H	  40.2701000000	  23.5114000000	  -0.6447370480
H	  41.6910000000	  24.0586000000	   0.0513629520
H	  40.6520000000	  21.3182000000	   0.1340629520
H	  42.1266000000	  21.9200000000	   0.7232629520
H	  39.2093000000	  23.3079000000	   2.9752200000
H	  38.5249000000	  22.7606000000	   1.3723600000
F	  41.4024000000	  26.5650000000	  -0.7965370480
F	  41.7457000000	  28.6314000000	  -0.2723370480
F	  40.9048000000	  28.1887000000	  -2.2006370480
O	  39.3209000000	  27.2870000000	   0.9689629520
O	  38.2300000000	  25.9518000000	   3.3222800000
C	  37.9547000000	  27.4020000000	   1.3995100000
C	  37.8263000000	  27.2731000000	   2.9555800000
C	  39.4600000000	  27.8672000000	  -0.4066370480
C	  40.9316000000	  27.8094000000	  -0.9348370480
C	  37.9006000000	  25.6166000000	   4.6726200000
H	  37.6268000000	  28.4103000000	   1.1168629520
H	  37.2902000000	  26.6324000000	   0.9428629520
H	  38.6555000000	  27.9214000000	   3.3179300000
H	  36.8075000000	  27.6376000000	   3.2707000000
H	  39.1236000000	  28.9332000000	  -0.4716370480
H	  38.7673000000	  27.2938000000	  -1.0296370480
H	  38.3496000000	  26.3775000000	   5.3259100000
H	  36.8172000000	  25.5660000000	   4.8331000000
H	  38.3443000000	  24.5942000000	   4.8853400000
