47

Li	  55.9001000000	  48.3681000000	  53.0002000000
F	  56.5112000000	  53.6364000000	  54.1309000000
F	  58.4207000000	  52.6776000000	  54.6486000000
F	  57.7818000000	  54.3296000000	  55.8757000000
O	  55.8019000000	  51.3151000000	  55.2719000000
O	  55.4562000000	  48.4260000000	  54.8216000000
C	  55.1913000000	  50.4341000000	  56.1791000000
C	  54.5033000000	  49.3371000000	  55.3707000000
C	  56.5583000000	  52.3085000000	  56.0381000000
C	  57.3410000000	  53.2974000000	  55.1584000000
C	  56.0770000000	  47.5240000000	  55.6784000000
H	  55.9869000000	  49.9315000000	  56.7982000000
H	  54.4831000000	  51.0275000000	  56.7193000000
H	  53.8165000000	  48.8699000000	  56.0716000000
H	  53.9037000000	  49.8371000000	  54.5908000000
H	  57.3395000000	  51.7200000000	  56.5397000000
H	  55.9269000000	  52.7651000000	  56.7505000000
H	  55.3858000000	  46.8889000000	  56.2585000000
H	  56.7228000000	  46.9122000000	  55.0297000000
H	  56.8690000000	  48.0359000000	  56.3046000000
F	  53.5717000000	  51.3930000000	  49.5668000000
F	  55.2728000000	  49.9861000000	  49.0972000000
F	  55.5754000000	  52.0396000000	  49.6199000000
O	  55.0889000000	  49.3194000000	  51.6400000000
O	  55.1430000000	  46.7901000000	  52.2351000000
C	  53.8563000000	  48.5862000000	  51.8036000000
C	  54.1354000000	  47.1830000000	  51.2679000000
C	  54.8643000000	  50.7245000000	  51.4173000000
C	  54.7790000000	  50.9745000000	  49.8950000000
C	  55.2932000000	  45.3700000000	  52.3252000000
H	  53.5678000000	  48.5202000000	  52.8420000000
H	  53.0453000000	  49.0581000000	  51.3503000000
H	  53.3031000000	  46.4967000000	  51.3723000000
H	  54.5077000000	  47.1050000000	  50.2566000000
H	  55.7106000000	  51.2023000000	  51.8730000000
H	  53.9504000000	  50.9681000000	  51.8911000000
H	  55.0993000000	  44.9098000000	  51.4522000000
H	  56.2341000000	  45.0239000000	  52.7769000000
H	  54.5843000000	  44.9848000000	  53.0353000000
S	  58.2582000000	  52.2763000000	  63.0482570480
S	  57.7292000000	  50.4676000000	  62.2026670480
S	  57.4039000000	  50.8264000000	  60.0488270480
S	  59.7622558424	  49.1813000000	  55.5827000000
S	  58.4406000000	  49.8049000000	  54.0760000000
S	  58.0995000000	  48.3042000000	  52.6273000000
S	  59.8754558424	  50.3961000000	  57.3556000000
S	  58.4169000000	  49.5074000000	  58.6082000000
