20

Li	  29.3940000000	  54.9395000000	  40.1777000000
O	  28.3839000000	  53.9902000000	  36.1722000000
O	  29.0915000000	  54.3052000000	  38.3111000000
C	  29.7396000000	  53.6317000000	  36.2377000000
C	  29.9683000000	  53.3779000000	  37.7109000000
C	  28.1746000000	  54.7123000000	  37.3550000000
H	  30.0473000000	  52.7449000000	  35.5789000000
H	  30.2667000000	  54.5529000000	  35.9165000000
H	  29.3999000000	  52.4699000000	  37.9069000000
H	  31.0113000000	  53.4047000000	  37.9851000000
H	  28.5289000000	  55.7735000000	  37.1343000000
H	  27.1555000000	  54.6825000000	  37.7199000000
S	  29.3781000000	  53.1570000000	  41.3124000000
S	  28.0777000000	  54.7583000000	  41.9964000000
S	  26.6932000000	  55.2695000000	  40.5373000000
S	  29.2038000000	  58.7667000000	  38.7735000000
S	  30.5747000000	  57.2527000000	  38.4719000000
S	  31.1410000000	  56.1254000000	  40.1899000000
S	  27.2428000000	  58.0744000000	  38.6340000000
S	  26.4223000000	  57.3668000000	  40.4644000000
