31

Li	  20.4943000000	  47.7386000000	  47.0795000000
O	  20.1769000000	  48.8450000000	  45.5112000000
O	  19.6809000000	  50.3220000000	  43.7690000000
C	  18.7552000000	  48.8479000000	  45.3881000000
C	  18.4406000000	  49.9634000000	  44.4203000000
C	  20.6022000000	  50.0086000000	  44.7530000000
H	  18.4803000000	  47.9973000000	  44.7808000000
H	  18.3367000000	  48.9662000000	  46.3522000000
H	  17.6658000000	  49.7823000000	  43.7402000000
H	  18.1094000000	  50.9286000000	  44.8300000000
H	  20.8611000000	  50.8564000000	  45.3825000000
H	  21.5778000000	  49.8199000000	  44.3076000000
F	  24.2478000000	  47.8847000000	  44.9791000000
F	  24.8818000000	  48.5016000000	  46.9382000000
F	  22.9556000000	  49.0829000000	  46.3064000000
O	  21.9777000000	  46.5478000000	  47.0857000000
O	  19.4374000000	  46.0831000000	  47.5970000000
C	  21.7479000000	  45.4963000000	  47.9733000000
C	  20.3387000000	  44.9638000000	  47.6954000000
C	  23.3922000000	  46.8237000000	  47.0934000000
C	  23.8604000000	  48.0937000000	  46.2274000000
C	  18.1357000000	  45.6176000000	  47.1390000000
H	  22.4890000000	  44.6934000000	  47.9064000000
H	  21.7810000000	  45.9489000000	  49.0018000000
H	  20.4540000000	  44.5280000000	  46.6927000000
H	  20.0832000000	  44.1768000000	  48.3422000000
H	  23.9509000000	  45.8996000000	  46.9432000000
H	  23.6686000000	  46.9572000000	  48.1337000000
H	  17.8901000000	  44.6180000000	  47.5850000000
H	  17.3748000000	  46.3163000000	  47.4239000000
H	  18.0981000000	  45.5526000000	  46.0641000000
