20

Li	  17.8367000000	   9.7070500000	   7.3563000000
O	  19.4136000000	  10.7516000000	   7.3371700000
O	  21.3617000000	  11.8189000000	   7.0685800000
C	  19.1976000000	  12.1450000000	   7.5401500000
C	  20.6154000000	  12.4968000000	   7.9965600000
C	  20.6464000000	  10.7237000000	   6.6658000000
H	  18.8938000000	  12.6132000000	   6.6110400000
H	  18.4392000000	  12.4939000000	   8.2757000000
H	  20.8867000000	  13.4436000000	   8.2555200000
H	  20.7711000000	  11.9104000000	   8.9113500000
H	  21.1268000000	   9.8243300000	   6.7952300000
H	  20.4656000000	  10.7965000000	   5.5829300000
S	  15.9426000000	  11.0551000000	   6.6198000000
S	  15.9395000000	  10.6948000000	   4.5156500000
S	  17.7375000000	  10.4015000000	   3.5192500000
S	  18.1771000000	   6.6282600000	   6.2887100000
S	  18.7310000000	   7.5529700000	   8.0496400000
S	  17.1855000000	   8.6515300000	   9.0147400000
S	  19.2333000000	   7.5199700000	   4.7162600000
S	  18.1815000000	   8.3547000000	   3.2558400000
