43

Li	  34.0832000000	   4.7660600000	  27.9505000000
F	  35.1758000000	   2.9489100000	  32.2536000000
F	  36.1091000000	   2.3364500000	  30.3569000000
F	  34.0188000000	   2.9022800000	  30.5172000000
O	  34.9068000000	   5.2945300000	  29.5993000000
O	  33.8836000000	   6.5501600000	  27.5646000000
C	  35.2160000000	   6.6201600000	  29.3628000000
C	  34.1700000000	   7.3971100000	  28.6415000000
C	  35.6363000000	   4.6406900000	  30.6074000000
C	  35.2600000000	   3.1971000000	  30.9704000000
C	  32.7511000000	   7.0822800000	  26.8796000000
H	  35.4680000000	   7.2075800000	  30.2486000000
H	  36.1242000000	   6.6727900000	  28.7188000000
H	  33.2538000000	   7.5537900000	  29.2023000000
H	  34.4767000000	   8.3566700000	  28.2620000000
H	  35.6230000000	   5.3251200000	  31.4716000000
H	  36.6788000000	   4.7204100000	  30.1257000000
H	  31.9486000000	   6.9928000000	  27.5000000000
H	  32.8262000000	   8.1205600000	  26.7091000000
H	  32.5743000000	   6.6455200000	  25.8672000000
N	  31.9238000000	   3.9245600000	  25.7910000000
S	  32.0197000000	   3.0979300000	  24.4759000000
O	  33.1246000000	   2.1699700000	  24.3967000000
O	  30.7803000000	   2.8057100000	  23.8040000000
C	  32.8344000000	   4.3780300000	  23.4440000000
F	  33.9414000000	   4.7498400000	  24.0474000000
F	  32.1226000000	   5.4962600000	  23.1855000000
F	  33.2178000000	   3.9412300000	  22.2414000000
S	  31.4835000000	   3.3463700000	  27.2139000000
O	  32.4539000000	   3.8431100000	  28.1412000000
O	  31.1694000000	   1.9408200000	  27.2974000000
C	  29.8690000000	   4.1629100000	  27.6225000000
F	  29.9954000000	   5.4447100000	  27.4137000000
F	  28.8431000000	   3.6589600000	  26.9393000000
F	  29.6204000000	   3.9512200000	  28.9049000000
S	  35.5087000000	   3.7082700000	  26.7103000000
S	  37.5665000000	   4.2342500000	  27.0429000000
S	  38.1833000000	   5.5653600000	  25.4698000000
S	  36.9864000000	   9.7129800000	  27.9318000000
S	  38.1626000000	  11.0988000000	  28.8284000000
S	  39.3740000000	  10.6305000000	  30.5167000000
S	  37.6638000000	   9.0661300000	  26.0616000000
S	  39.0137000000	   7.3710200000	  26.1472000000
