35

Li	  15.5241000000	  33.1337000000	   8.4153900000
O	  13.8795000000	  29.6295000000	   8.7272300000
O	  15.3760000000	  31.2481000000	   8.8369400000
C	  14.2633000000	  29.7888000000	  10.0965000000
C	  15.3764000000	  30.8045000000	  10.1098000000
C	  14.8822000000	  30.2249000000	   8.0235900000
H	  13.4376000000	  30.1636000000	  10.7354000000
H	  14.6513000000	  28.9375000000	  10.5749000000
H	  15.2588000000	  31.7055000000	  10.7276000000
H	  16.2239000000	  30.1876000000	  10.3887000000
H	  15.6650000000	  29.5307000000	   7.7432100000
H	  14.4539000000	  30.5741000000	   7.0148500000
N	  17.9463000000	  33.7346000000	  11.9817000000
S	  17.3735000000	  34.5150000000	  10.7607000000
O	  18.2923000000	  35.4112000000	  10.1974000000
O	  16.5211000000	  33.7241000000	   9.9607100000
C	  16.1504000000	  35.6237000000	  11.6389000000
F	  15.4009000000	  36.2860000000	  10.8058000000
F	  16.7271000000	  36.4997000000	  12.4224000000
F	  15.2735000000	  35.0254000000	  12.3798000000
S	  19.4527000000	  33.2947000000	  12.1830000000
O	  20.1456000000	  33.9884000000	  13.2273000000
O	  20.2704000000	  33.0194000000	  11.0162000000
C	  19.2175000000	  31.6011000000	  12.8924000000
F	  20.3470000000	  30.8814000000	  13.1786000000
F	  18.3548000000	  31.6239000000	  13.9333000000
F	  18.5949000000	  30.8583000000	  11.9690000000
S	  13.2540000000	  33.2311000000	   1.6682300000
S	  11.9265000000	  31.8942000000	   2.4995800000
S	  10.8874000000	  32.6227000000	   4.1887900000
S	  13.0209000000	  33.4043000000	   8.8971000000
S	  14.3441000000	  35.0114000000	   8.3076300000
S	  15.4902000000	  34.3563000000	   6.6761300000
S	  11.4043000000	  33.4009000000	   7.6117600000
S	  11.8299000000	  32.1481000000	   5.9323800000
