46

Li	  40.7819000000	   1.8764800000	  36.6062000000
O	  39.1949000000	   2.6885900000	  36.5270000000
O	  37.1337000000	   3.0763900000	  37.1727000000
C	  38.3978000000	   2.4891800000	  35.3370000000
C	  37.0317000000	   2.2626600000	  36.0578000000
C	  38.4478000000	   3.1733700000	  37.5342000000
H	  38.4094000000	   3.3335400000	  34.5965000000
H	  38.7439000000	   1.6145000000	  34.7497000000
H	  36.1837000000	   2.5785800000	  35.4897000000
H	  36.9790000000	   1.2013800000	  36.4192000000
H	  38.5792000000	   2.5831000000	  38.4274000000
H	  38.6033000000	   4.2031300000	  37.7879000000
F	  40.1953000000	  -1.3771385211	  32.3143000000
F	  39.4758000000	  -0.6837385211	  34.1736000000
F	  41.4320000000	  -1.8323385211	  34.0132000000
O	  41.8435000000	   1.0699614789	  34.5111000000
O	  42.1699000000	   3.2660500000	  36.1896000000
C	  42.5200000000	   2.2271700000	  34.1105000000
C	  43.1921000000	   2.8660300000	  35.3529000000
C	  41.4903000000	   0.3874614789	  33.2408000000
C	  40.6304000000	  -0.9407385211	  33.4562000000
C	  42.6489000000	   3.9781200000	  37.3314000000
H	  43.3944000000	   1.9466700000	  33.4454000000
H	  41.8406000000	   2.8919600000	  33.6446000000
H	  43.9412000000	   2.2229700000	  35.8002000000
H	  43.7835000000	   3.7150100000	  35.0719000000
H	  42.3486000000	   0.2028614789	  32.6001000000
H	  40.8742000000	   1.0596614789	  32.6261000000
H	  43.0906000000	   4.8517200000	  36.9792000000
H	  41.8050000000	   4.3459900000	  37.9950000000
H	  43.3689000000	   3.4840400000	  37.9295000000
N	  40.9972000000	  -1.2289385211	  38.8056000000
S	  39.7672000000	  -1.3998385211	  37.8783000000
O	  39.6588000000	  -0.4647385211	  36.7680000000
O	  39.3717000000	  -2.7550385211	  37.6376000000
C	  38.4167000000	  -0.8022385211	  38.9790000000
F	  37.2500000000	  -0.5836385211	  38.3366000000
F	  38.6811000000	   0.3693614789	  39.5259000000
F	  38.1989000000	  -1.6829385211	  39.9975000000
S	  42.0173000000	  -0.0838385211	  38.8127000000
O	  42.6204000000	  -0.0047385211	  40.1235000000
O	  41.5203000000	   1.1408614789	  38.2143000000
C	  43.2300000000	  -0.7096385211	  37.6636000000
F	  44.2435000000	   0.1454614789	  37.4712000000
F	  43.7371000000	  -1.8887385211	  38.0120000000
F	  42.7517000000	  -0.9564385211	  36.4426000000
