54

Li	   9.9379900000	  29.8317000000	  27.2449000000
F	   8.0317800000	  28.9260000000	  24.6247000000
F	   8.9227400000	  27.7927000000	  23.0712000000
F	   9.7597900000	  29.6599000000	  23.3694000000
O	  10.4199000000	  28.3548000000	  26.2180000000
O	  11.7519000000	  29.4543000000	  28.3909000000
C	  11.6523000000	  27.8332000000	  26.6691000000
C	  11.7864000000	  28.0118000000	  28.1646000000
C	  10.1431000000	  27.8041000000	  24.9158000000
C	   9.1870400000	  28.5936000000	  24.0234000000
C	  11.8400000000	  29.9086000000	  29.7536000000
H	  11.8260000000	  26.8132000000	  26.3352000000
H	  12.4684000000	  28.2552000000	  26.0753000000
H	  10.8850000000	  27.5458000000	  28.6747000000
H	  12.7269000000	  27.6114000000	  28.4971000000
H	   9.7333100000	  26.8056000000	  25.2020000000
H	  11.0262000000	  27.7342000000	  24.3164000000
H	  12.8596000000	  29.7932000000	  30.0846000000
H	  11.7242000000	  30.9137000000	  29.8511000000
H	  11.2100000000	  29.3850000000	  30.5346000000
F	   7.1818200000	  31.7769000000	  31.5034000000
F	   9.2803200000	  32.2171000000	  31.6996000000
F	   8.7427900000	  30.2267000000	  31.1566000000
O	   9.5968700000	  31.7738000000	  28.8065000000
O	  10.8925000000	  31.1398000000	  26.3936000000
C	   9.6620100000	  32.7112000000	  27.6886000000
C	  11.0360000000	  32.3625000000	  27.0939000000
C	   8.4296000000	  31.8941000000	  29.5834000000
C	   8.4203600000	  31.5315000000	  30.9975000000
C	  12.0100000000	  30.9354000000	  25.6086000000
H	   8.8856800000	  32.4678000000	  26.9860000000
H	   9.6662500000	  33.7019000000	  28.1240000000
H	  11.3100000000	  33.2031000000	  26.4358000000
H	  11.7304000000	  32.2438000000	  27.9160000000
H	   7.7270200000	  31.1812000000	  29.0844000000
H	   7.9376200000	  32.9200000000	  29.5787000000
H	  12.2401000000	  31.8635000000	  25.1288000000
H	  12.9544000000	  30.7127000000	  26.1484000000
H	  11.9549000000	  30.2479000000	  24.7721000000
N	   8.0368700000	  26.6317000000	  27.7636000000
S	   7.3203500000	  28.0228000000	  27.9002000000
O	   8.2148800000	  29.2001000000	  27.8137000000
O	   6.0348900000	  28.2607000000	  27.2919000000
C	   6.9760700000	  28.0087000000	  29.6670000000
F	   8.0594800000	  27.7127000000	  30.3687000000
F	   6.0859200000	  26.9755000000	  29.8990000000
F	   6.4169600000	  29.0901000000	  30.1201000000
S	   7.7613500000	  25.4201000000	  26.7484000000
O	   9.0113900000	  24.8439000000	  26.2719000000
O	   6.6967200000	  25.5931000000	  25.8318000000
C	   7.1117600000	  24.1692000000	  27.9255000000
F	   6.7875400000	  23.0406000000	  27.3109000000
F	   7.8804400000	  24.0286000000	  28.9439000000
F	   5.9957500000	  24.6995000000	  28.3598000000
