34

Li	   3.2407600000	  21.2759000000	  36.4972000000
O	   2.4059900000	  20.6741000000	  37.8744000000
O	   2.9295800000	  18.8664000000	  39.0483000000
C	   1.2232800000	  19.9455000000	  37.7318000000
C	   1.6660100000	  18.6323000000	  38.3220000000
C	   2.9955500000	  20.1639000000	  39.0857000000
H	   0.5016941576	  20.4712000000	  38.3994000000
H	   0.8819941576	  19.7783000000	  36.7048000000
H	   0.9315941576	  18.3250000000	  39.0648000000
H	   1.8497600000	  17.8938000000	  37.5467000000
H	   4.0407200000	  20.4231000000	  39.1798000000
H	   2.3535900000	  20.4310000000	  39.8890000000
O	   6.0349900000	  23.6808000000	  37.6971000000
O	   4.5708900000	  22.3295000000	  36.8324000000
C	   6.6053600000	  23.3149000000	  36.4593000000
C	   5.4460900000	  22.6478000000	  35.7439000000
C	   4.6824800000	  23.5124000000	  37.5298000000
H	   6.8740800000	  24.2188000000	  35.9172000000
H	   7.3973700000	  22.6002000000	  36.5336000000
H	   5.0682400000	  23.3781000000	  34.9399000000
H	   5.8852600000	  21.7691000000	  35.2213000000
H	   4.1456500000	  23.4823000000	  38.4411000000
H	   4.3576500000	  24.3550000000	  36.9214000000
O	   3.7179300000	  19.9509000000	  35.3056000000
O	   4.5169500000	  18.9392000000	  33.5248000000
C	   4.3112700000	  18.7897000000	  35.8059000000
C	   4.9851200000	  18.1860000000	  34.6562000000
C	   3.4180600000	  19.6313000000	  34.0026000000
H	   5.0190200000	  19.1629000000	  36.4862000000
H	   3.5664300000	  18.2282000000	  36.2384000000
H	   6.0700400000	  18.2548000000	  34.7723000000
H	   4.7156700000	  17.1429000000	  34.5327000000
H	   2.5695000000	  18.9379000000	  34.1239000000
H	   3.1401200000	  20.4515000000	  33.3529000000
