35

Li	  15.9467000000	  11.1907000000	  58.2527000000
F	  14.1132000000	  11.1944000000	  59.7546270480
F	  13.4228000000	  10.2914000000	  61.7042570480
F	  13.6018000000	   9.0456900000	  59.8551770480
O	  16.5286000000	  10.1901000000	  60.0006370480
O	  17.9282000000	  11.7812000000	  58.3306000000
C	  17.7485000000	  10.7276000000	  60.4493670480
C	  18.5987000000	  10.8697000000	  59.2528770480
C	  15.5836000000	   9.7778000000	  60.9642670480
C	  14.1083000000	  10.0814000000	  60.5535670480
C	  18.7241000000	  12.0637000000	  57.2771000000
H	  17.6242000000	  11.5717000000	  61.0391970480
H	  18.3371000000	  10.0504000000	  61.0478170480
H	  19.4232000000	  11.3546000000	  59.7395570480
H	  18.9176000000	   9.9496200000	  58.8074370480
H	  15.6862000000	  10.1774000000	  62.0111070480
H	  15.6457000000	   8.7036000000	  61.2088870480
H	  18.2117000000	  12.8454000000	  56.7648000000
H	  19.7004000000	  12.4821000000	  57.5276000000
H	  18.9386000000	  11.1999000000	  56.6399000000
N	  16.3258000000	   8.9505400000	  54.6217000000
S	  16.4618000000	   8.7749700000	  56.1672000000
O	  17.7680000000	   8.4200200000	  56.5945000000
O	  15.7558000000	   9.7127600000	  56.9891000000
C	  15.5111000000	   7.2409900000	  56.5030000000
F	  14.2512000000	   7.4094800000	  56.2236000000
F	  15.5782000000	   6.9972300000	  57.8113000000
F	  15.9751000000	   6.1761800000	  55.9055000000
S	  16.0476000000	  10.3027000000	  53.8056000000
O	  17.1064000000	  10.4887000000	  52.8081000000
O	  15.5381000000	  11.3500000000	  54.6444000000
C	  14.5965000000	   9.8775100000	  52.7357000000
F	  13.4871000000	   9.8081100000	  53.4577000000
F	  14.4231000000	  10.7614000000	  51.7494000000
F	  14.7697000000	   8.6980300000	  52.1278000000
