50

Li	  12.1351000000	  55.2837000000	  21.5792000000
O	  11.3723000000	  57.2450000000	  18.1522000000
O	  11.7054000000	  56.2147000000	  20.1335000000
C	  10.7468000000	  58.1100000000	  19.1724000000
C	  11.1808000000	  57.4929000000	  20.5115000000
C	  12.1573000000	  56.3384000000	  18.7852000000
H	  11.1396000000	  59.1295685211	  18.9710000000
H	   9.7255200000	  57.9192000000	  18.9175000000
H	  11.9977000000	  58.0502000000	  20.8864000000
H	  10.3664000000	  57.4158000000	  21.2497000000
H	  12.2331000000	  55.4130000000	  18.1961000000
H	  13.1908000000	  56.7105000000	  18.7697000000
O	  13.1284000000	  56.5831000000	  22.7054000000
O	  13.9725000000	  57.4207000000	  24.5930000000
C	  14.2531000000	  57.2994000000	  22.2841000000
C	  15.0165000000	  57.3221000000	  23.6407000000
C	  12.7546000000	  57.1671000000	  23.9418000000
H	  14.7879000000	  56.8046000000	  21.4855000000
H	  13.9648000000	  58.3563000000	  22.0740000000
H	  15.6413000000	  56.4627000000	  23.7903000000
H	  15.8120000000	  58.0189000000	  23.6456000000
H	  12.1588000000	  58.1326000000	  23.8434000000
H	  12.1452000000	  56.4855000000	  24.4648000000
F	   6.5154200000	  55.0334000000	  27.0875000000
F	   8.5672300000	  54.0382000000	  27.4541000000
F	   7.1043100000	  53.1721000000	  26.1777000000
O	   8.8856500000	  54.3326000000	  24.4691000000
O	  11.2476000000	  53.9230000000	  22.4410000000
C	   9.0345300000	  54.8238000000	  23.1588000000
C	   9.8208200000	  53.8114000000	  22.2813000000
C	   8.0600600000	  55.1506000000	  25.3028000000
C	   7.5604200000	  54.3466000000	  26.5404000000
C	  11.8277000000	  53.2840000000	  23.5757000000
H	   8.0344800000	  54.9471000000	  22.6789000000
H	   9.5027700000	  55.7660000000	  23.0759000000
H	   9.5766600000	  52.8429000000	  22.4852000000
H	   9.6894000000	  54.0025000000	  21.2402000000
H	   7.2077200000	  55.6592000000	  24.8025000000
H	   8.7635000000	  55.9253000000	  25.6261000000
H	  11.3006000000	  53.5766000000	  24.4533000000
H	  11.8064000000	  52.2470000000	  23.4771000000
H	  12.8435000000	  53.5075000000	  23.7832000000
S	  14.9887000000	  62.5359185211	  17.1713000000
S	  13.9395000000	  60.7495885211	  17.2815000000
S	  14.7739000000	  59.5743285211	  18.8392000000
S	  16.5805000000	  54.8970000000	  18.7187000000
S	  14.7274000000	  53.8178000000	  18.8329000000
S	  13.9836000000	  53.8950000000	  20.8387000000
S	  15.9828000000	  56.4775000000	  17.6664000000
S	  16.5305000000	  58.3885000000	  18.3510000000
