50

Li	  25.7726000000	  42.7855000000	  22.1367000000
O	  23.1791000000	  40.9751000000	  24.2339000000
O	  25.2206000000	  41.3502000000	  23.3307000000
C	  24.0691000000	  40.8933000000	  25.3335000000
C	  25.4364000000	  41.1937000000	  24.7097000000
C	  23.9815000000	  40.7371000000	  23.1326000000
H	  23.8051000000	  41.5891000000	  26.1355000000
H	  23.9687000000	  40.0089000000	  25.9803000000
H	  25.8823000000	  42.0295000000	  25.2563000000
H	  25.9454000000	  40.2095000000	  24.8883000000
H	  24.0105000000	  39.6924000000	  23.0198000000
H	  23.4720000000	  41.2453000000	  22.2622000000
N	  26.1344000000	  46.6586000000	  23.9402000000
S	  27.0202000000	  46.9097000000	  22.7415000000
O	  28.1498000000	  46.0272000000	  22.8749000000
O	  26.3396000000	  47.0343000000	  21.4932000000
C	  27.5432000000	  48.6372000000	  23.1663000000
F	  28.4717000000	  49.0190000000	  22.3384000000
F	  28.0576000000	  48.7371000000	  24.3998000000
F	  26.6115000000	  49.5575000000	  23.0104000000
S	  25.5433000000	  45.2148000000	  24.3437000000
O	  26.1198000000	  44.0900000000	  23.5979000000
O	  24.1276000000	  45.3334000000	  24.5181000000
C	  26.1322000000	  45.0978000000	  26.0724000000
F	  27.4288000000	  45.2100000000	  26.1329000000
F	  25.5567000000	  45.9304000000	  26.8806000000
F	  25.8337000000	  43.8255000000	  26.5348000000
N	  23.3443000000	  44.4689000000	  19.0244000000
S	  23.1479000000	  44.0921000000	  20.5130000000
O	  24.1074000000	  43.0915000000	  21.0199000000
O	  22.7223000000	  45.1261000000	  21.3993000000
C	  21.5759000000	  43.0883000000	  20.3183000000
F	  21.7544000000	  42.0252000000	  19.6185000000
F	  20.5549000000	  43.7527000000	  19.8561000000
F	  21.1169000000	  42.6679000000	  21.4807000000
S	  24.6153000000	  45.1459000000	  18.4706000000
O	  25.2942000000	  44.2242000000	  17.5920000000
O	  25.4162000000	  45.9664000000	  19.3611000000
C	  23.8146000000	  46.3910000000	  17.4195000000
F	  23.4443000000	  47.4751000000	  18.0983000000
F	  24.6109000000	  46.8854000000	  16.5210000000
F	  22.7342000000	  46.0265000000	  16.6950000000
S	  27.3428000000	  43.6979000000	  20.8980000000
S	  27.3800000000	  41.6683000000	  20.8331000000
S	  27.0958000000	  40.9494000000	  18.8560000000
S	  30.8314000000	  37.5954000000	  17.3868000000
S	  30.4840000000	  35.7541000000	  16.4755000000
S	  31.8251000000	  35.2594000000	  14.8812000000
S	  29.3408000000	  38.8980000000	  16.9950000000
S	  28.0261000000	  39.0484000000	  18.6470000000
