54

Li	  14.9379000000	  58.2385000000	   9.0285400000
F	  18.6851000000	  55.6772000000	  11.6643000000
F	  19.0582000000	  57.7421000000	  11.7484000000
F	  18.5928000000	  56.8363000000	   9.8596300000
O	  16.0667000000	  56.9385000000	  10.0711000000
O	  14.1774000000	  56.4927000000	   8.4898400000
C	  15.8610000000	  55.5703000000	   9.6320400000
C	  15.2046000000	  55.5797000000	   8.3063700000
C	  16.7652000000	  57.0738000000	  11.3140000000
C	  18.2569000000	  56.7808000000	  11.1886000000
C	  13.1098000000	  56.2358000000	   7.6053000000
H	  16.7540000000	  54.9918000000	   9.5422300000
H	  15.3249000000	  55.1122000000	  10.4606000000
H	  15.9727000000	  55.8324000000	   7.5930600000
H	  14.8989000000	  54.6034000000	   8.1229700000
H	  16.2767000000	  56.4916000000	  12.1350000000
H	  16.5960000000	  58.1448000000	  11.4661000000
H	  13.4802000000	  56.0611000000	   6.5551000000
H	  12.5368000000	  55.3390000000	   7.8668500000
H	  12.4166000000	  57.1072000000	   7.6275800000
F	  12.5284000000	  55.3483000000	  10.4827000000
F	  10.8741000000	  56.8710000000	  10.4032000000
F	  10.8666000000	  55.4014000000	  11.9899000000
O	  13.3305000000	  57.9216000000	  11.3777000000
O	  14.8605000000	  59.6770085211	  10.2853000000
C	  12.7205000000	  59.0602285211	  10.9180000000
C	  13.7632000000	  60.1373485211	  11.0998000000
C	  12.4661000000	  57.1215000000	  12.2181000000
C	  11.6940000000	  56.1836000000	  11.2159000000
C	  15.9773000000	  60.5692385211	  10.1827000000
H	  12.5594000000	  58.9755085211	   9.8561300000
H	  11.7703000000	  59.3167585211	  11.3677000000
H	  13.3420000000	  61.0627685211	  10.7690000000
H	  14.0856000000	  60.3943985211	  12.1444000000
H	  11.9712000000	  57.8030000000	  12.9009000000
H	  13.1328000000	  56.5270000000	  12.7566000000
H	  16.7183000000	  60.0982585211	   9.5799200000
H	  15.7001000000	  61.6233585211	   9.9215200000
H	  16.3514000000	  60.6487085211	  11.1856000000
N	  15.7875000000	  60.1299085211	   6.0348700000
S	  16.9111000000	  59.1269585211	   6.3206200000
O	  18.2127000000	  59.6127685211	   5.9808000000
O	  16.7582000000	  58.3582000000	   7.4944000000
C	  16.7113000000	  57.9649000000	   4.9344900000
F	  15.4827000000	  57.6430000000	   4.8116000000
F	  17.4081000000	  56.8583000000	   5.1561000000
F	  17.0693000000	  58.3084000000	   3.7216400000
S	  14.6168000000	  60.5295085211	   6.9028300000
O	  14.6178000000	  61.8411785211	   7.4482900000
O	  14.2191000000	  59.4451885211	   7.7700400000
C	  13.3763000000	  60.5147885211	   5.5879300000
F	  12.8775000000	  59.3378685211	   5.2983200000
F	  12.2802000000	  61.3016985211	   5.8549800000
F	  13.8275000000	  60.9877785211	   4.4193000000
