42

Li	   6.2885800000	  51.1922000000	  30.0515000000
O	   4.6882700000	  51.7065000000	  26.2500000000
O	   5.6158300000	  51.5995000000	  28.4006000000
C	   3.8718300000	  52.5456000000	  27.0777000000
C	   4.3351800000	  52.1731000000	  28.4468000000
C	   5.8293600000	  51.5376000000	  26.9981000000
H	   4.0846300000	  53.5979000000	  26.8552000000
H	   2.8698700000	  52.2584000000	  26.9390000000
H	   4.2658200000	  52.9520000000	  29.2255000000
H	   3.6637800000	  51.3911000000	  28.7295000000
H	   6.1359700000	  50.5053000000	  26.8178000000
H	   6.6969900000	  52.1836000000	  26.7613000000
N	   2.9654800000	  49.4316000000	  31.9294000000
S	   3.3123400000	  48.3357000000	  30.8855000000
O	   3.7589400000	  48.7852000000	  29.5782000000
O	   3.9948400000	  47.1814000000	  31.3627000000
C	   1.5884700000	  47.8056000000	  30.5534000000
F	   0.9536941576	  47.5693000000	  31.6934000000
F	   1.5209800000	  46.6943000000	  29.7624000000
F	   0.9356941576	  48.7282000000	  29.8606000000
S	   3.6632900000	  50.7591000000	  32.1341000000
O	   4.7156200000	  51.1250000000	  31.1763000000
O	   3.9896900000	  51.0809000000	  33.4822000000
C	   2.2853600000	  51.8459000000	  31.7506000000
F	   1.2253800000	  51.5797000000	  32.5476000000
F	   2.6124400000	  53.0958000000	  32.0565000000
F	   1.8422200000	  51.8378000000	  30.4747000000
N	   7.1500300000	  47.0846000000	  29.5671000000
S	   7.9231700000	  48.4376000000	  29.7670000000
O	   8.8311700000	  48.7506000000	  28.6924000000
O	   7.0992600000	  49.4741000000	  30.2108000000
C	   9.1352700000	  48.0899000000	  31.0758000000
F	   8.5984100000	  47.5530000000	  32.1295000000
F	   9.6363300000	  49.2450000000	  31.4241000000
F	  10.0821000000	  47.2445000000	  30.6956000000
S	   7.2755800000	  46.0802000000	  28.4055000000
O	   7.3179900000	  44.7068000000	  28.8596000000
O	   8.1177600000	  46.4489000000	  27.2554000000
C	   5.6371800000	  46.2601000000	  27.7091000000
F	   4.7931300000	  45.8162000000	  28.6645000000
F	   5.3948800000	  47.4963000000	  27.3613000000
F	   5.4494100000	  45.4986000000	  26.6042000000
