28

Li	  22.7662000000	  25.3652000000	  50.1108000000
F	  20.5160000000	  23.2078000000	  49.2327000000
F	  20.1150000000	  21.2568000000	  50.0517000000
F	  22.0471000000	  21.7107000000	  49.3995000000
O	  22.5857000000	  23.7879000000	  51.1205000000
O	  23.8378000000	  26.5887000000	  51.6055000000
C	  22.9792000000	  24.3437000000	  52.3991000000
C	  24.1831000000	  25.3424000000	  52.2884000000
C	  21.5942000000	  22.7731000000	  51.3306000000
C	  20.9802000000	  22.2107000000	  49.9871000000
C	  24.8407000000	  27.6079000000	  51.8514000000
H	  22.1800000000	  24.9611000000	  52.8629000000
H	  23.1937000000	  23.5664000000	  53.1472000000
H	  24.4088000000	  25.4541000000	  53.3192000000
H	  25.0502000000	  24.8709000000	  51.8839000000
H	  20.7887000000	  23.2171000000	  51.8897000000
H	  22.0581000000	  21.9599000000	  51.9737000000
H	  25.8096000000	  27.3925000000	  51.4275000000
H	  24.4325000000	  28.5122000000	  51.3598000000
H	  25.0165000000	  27.8450000000	  52.9393000000
S	  29.5185000000	  20.4739000000	  48.5714000000
S	  28.9442000000	  22.5048000000	  48.1638000000
S	  27.5970000000	  23.2260000000	  49.6459000000
S	  22.7202000000	  24.8247000000	  47.9109000000
S	  21.8653000000	  26.6383000000	  48.3725000000
S	  20.8211000000	  26.3923000000	  50.2005000000
S	  24.7451000000	  24.7877000000	  48.3199000000
S	  25.4782000000	  22.9629000000	  49.0807000000
