46

Li	  21.8071000000	  26.0137000000	  55.3935000000
O	  24.4672000000	  25.1854000000	  57.8527000000
O	  23.0573000000	  24.8089000000	  56.1166000000
C	  23.4648000000	  24.3094000000	  58.4275000000
C	  22.4492000000	  24.0696000000	  57.2067000000
C	  24.4305000000	  24.9915000000	  56.4098000000
H	  23.9675000000	  23.4110000000	  58.7073000000
H	  23.1300000000	  24.8153000000	  59.3339370480
H	  22.2162000000	  23.0701000000	  56.8680000000
H	  21.4877000000	  24.5297000000	  57.4957000000
H	  24.7420000000	  25.8945000000	  55.9098000000
H	  25.1393000000	  24.1326000000	  56.2843000000
O	  20.3578000000	  25.1675000000	  54.5563000000
O	  18.9612000000	  23.8060000000	  53.2954000000
C	  19.1287000000	  25.1577000000	  55.3187000000
C	  18.4955000000	  23.9159000000	  54.6531000000
C	  20.2918000000	  24.2201000000	  53.4946000000
H	  19.2595000000	  25.0045000000	  56.3665000000
H	  18.6393000000	  26.1441000000	  55.3349000000
H	  18.7739000000	  22.9596000000	  55.1686000000
H	  17.4145000000	  23.9415000000	  54.7213000000
H	  20.7257000000	  24.6819000000	  52.5450000000
H	  20.9729000000	  23.3750000000	  53.7287000000
N	  21.4692000000	  27.1732000000	  59.4242770480
S	  21.2432000000	  27.8047000000	  58.0219000000
O	  22.0091000000	  28.9813000000	  57.7898000000
O	  21.0304000000	  26.8864000000	  56.9083000000
C	  19.5014000000	  28.3351000000	  58.3249000000
F	  19.5430000000	  29.2230000000	  59.2612470480
F	  18.6642000000	  27.3563000000	  58.6707000000
F	  19.0056000000	  28.8337000000	  57.2268000000
S	  22.2807000000	  27.8370000000	  60.5839370480
O	  22.4322000000	  29.2671000000	  60.6375170480
O	  23.4550000000	  27.0642000000	  61.0200870480
C	  21.1689000000	  27.4904000000	  61.9725170480
F	  20.8929000000	  26.1709000000	  62.1125570480
F	  21.7316000000	  27.8289000000	  63.2017870480
F	  20.0138000000	  28.1153000000	  61.8619570480
S	  22.9770000000	  26.9570000000	  53.8657000000
S	  21.3433000000	  28.3680000000	  53.7000000000
S	  20.5193000000	  28.5795000000	  51.7695000000
S	  16.3301000000	  29.3131000000	  49.9373000000
S	  14.3383000000	  29.6802000000	  50.3377000000
S	  13.1154000000	  28.1817000000	  49.5523000000
S	  17.0626000000	  28.2979000000	  51.6892000000
S	  18.8591000000	  27.2595000000	  51.3846000000
