35

Li	  44.5186000000	  40.9895000000	   7.7148100000
O	  42.4417000000	  43.7148000000	   6.4755100000
O	  42.5794000000	  41.4502000000	   6.9411700000
C	  42.2321000000	  43.0262000000	   5.2463200000
C	  42.1630000000	  41.5751000000	   5.5311600000
C	  42.3663000000	  42.7332000000	   7.5337600000
H	  41.3073000000	  43.4575000000	   4.8479700000
H	  43.0392000000	  43.2766000000	   4.5318300000
H	  41.2581000000	  41.0784000000	   5.2641600000
H	  42.8858000000	  41.0833000000	   4.9240900000
H	  42.9910000000	  42.9379000000	   8.3544000000
H	  41.2965000000	  42.6936000000	   7.9118600000
N	  46.6790000000	  41.4239000000	   5.2318200000
S	  46.0253000000	  40.0158000000	   5.2815700000
O	  46.8848000000	  38.9010000000	   5.4415800000
O	  44.8299000000	  40.1232000000	   6.1051400000
C	  45.3380000000	  39.8148000000	   3.6164900000
F	  44.6860000000	  40.8958000000	   3.1751500000
F	  44.3995000000	  38.8683000000	   3.5818400000
F	  46.2532000000	  39.4771000000	   2.7301200000
S	  46.6747000000	  42.5397000000	   6.3797200000
O	  47.9570000000	  42.7602000000	   7.0204300000
O	  45.4402000000	  42.6223000000	   7.1832400000
C	  46.5201000000	  44.1684000000	   5.4363400000
F	  45.3552000000	  44.2691000000	   4.7761400000
F	  46.5360000000	  45.2156000000	   6.2113800000
F	  47.5329000000	  44.1579000000	   4.5176100000
S	  45.3910000000	  40.2045000000	   9.4387400000
S	  45.9336000000	  42.0358000000	  10.3438000000
S	  44.3861000000	  43.4793000000	  10.5744000000
S	  43.0198000000	  46.9134000000	  13.2523000000
S	  41.5063000000	  48.3004000000	  13.8510000000
S	  40.5757000000	  49.1673000000	  12.1835000000
S	  42.3451000000	  44.9210000000	  12.9637000000
S	  43.9166000000	  43.6266000000	  12.5910000000
