53

Li	  18.9538000000	  37.2856000000	  57.1342000000
O	  17.2733000000	  37.4421000000	  57.9582000000
O	  15.9713000000	  38.9266000000	  58.8336370480
C	  17.2870000000	  37.1311000000	  59.3001770480
C	  16.7850000000	  38.3718000000	  59.9117470480
C	  16.2572000000	  38.2848000000	  57.6451000000
H	  16.6605000000	  36.2977000000	  59.4576270480
H	  18.3416000000	  36.9329000000	  59.6667670480
H	  16.0674000000	  38.0590000000	  60.7134570480
H	  17.4618000000	  39.1950000000	  60.1360070480
H	  16.6335000000	  38.9582000000	  56.8279000000
H	  15.3922000000	  37.7125000000	  57.3107000000
O	  18.7917000000	  36.3740000000	  55.5628000000
O	  18.6806000000	  34.9049000000	  53.7914000000
C	  17.3992000000	  36.0178000000	  55.3813000000
C	  17.4172000000	  34.9694000000	  54.3137000000
C	  19.3562000000	  35.9705000000	  54.3440000000
H	  16.9401000000	  35.5682000000	  56.2791000000
H	  16.7520000000	  36.8008000000	  55.0018000000
H	  17.1768000000	  34.0725000000	  54.7790000000
H	  16.7127000000	  35.0548000000	  53.5096000000
H	  19.3081000000	  36.7587000000	  53.5720000000
H	  20.4401000000	  35.7247000000	  54.3934000000
N	  19.2739000000	  41.4511000000	  55.5634000000
S	  20.0602000000	  40.3299000000	  56.3351000000
O	  19.3545000000	  39.0756000000	  56.3674000000
O	  21.5064000000	  40.3785000000	  56.1932000000
C	  19.6979000000	  40.9643000000	  57.9952000000
F	  18.3720000000	  41.1508000000	  58.2171000000
F	  20.3274000000	  42.1347000000	  58.1771000000
F	  20.0595000000	  40.0943000000	  58.9508670480
S	  18.1160000000	  41.2241000000	  54.4598000000
O	  17.3814000000	  39.9438000000	  54.5773000000
O	  18.5346000000	  41.6976000000	  53.1617000000
C	  16.7925000000	  42.3534000000	  55.0024000000
F	  16.1890000000	  41.9981000000	  56.1241000000
F	  17.2596000000	  43.4927000000	  55.1755000000
F	  15.8847000000	  42.4968000000	  54.0613000000
N	  21.6626000000	  34.8861000000	  59.5165370480
S	  21.4633000000	  35.3478000000	  58.0681000000
O	  22.0431000000	  34.5378000000	  57.0508000000
O	  20.2626000000	  36.1227000000	  57.7720000000
C	  22.7899000000	  36.7199000000	  58.1094000000
F	  22.4189000000	  37.7898000000	  58.8347470480
F	  22.9881000000	  37.1291000000	  56.8960000000
F	  23.8804000000	  36.2839000000	  58.6547000000
S	  20.5529000000	  34.4135000000	  60.5102170480
O	  21.0184000000	  33.2580000000	  61.2792070480
O	  19.1964000000	  34.4294000000	  60.0448070480
C	  20.5904000000	  35.7080000000	  61.8095170480
F	  20.1901000000	  36.8873000000	  61.3834970480
F	  19.7889000000	  35.4239000000	  62.8039770480
F	  21.7859000000	  35.9290000000	  62.3370470480
