36

Li	  19.5238000000	   8.6261700000	  11.9445000000
F	  18.4880000000	  11.4055000000	  12.1129000000
F	  18.8449000000	  12.6853000000	  13.8063000000
F	  18.1486000000	  10.7280000000	  14.2092000000
O	  20.3754000000	   9.5411100000	  13.3251000000
O	  20.8297000000	   7.3339000000	  12.3145000000
C	  21.5509000000	   8.9342700000	  13.7968000000
C	  21.4267000000	   7.4428100000	  13.5978000000
C	  20.3494000000	  10.9746000000	  13.5799000000
C	  18.9181000000	  11.4288000000	  13.3956000000
C	  20.7335000000	   5.9697000000	  11.9571000000
H	  22.3856000000	   9.3502900000	  13.2265000000
H	  21.8239000000	   9.2113000000	  14.8081000000
H	  22.3450000000	   6.9144300000	  13.6509000000
H	  20.6973000000	   7.0849700000	  14.2775000000
H	  21.1614000000	  11.5173000000	  13.0143000000
H	  20.7036000000	  11.1193000000	  14.5343000000
H	  20.2215000000	   5.4248700000	  12.7335000000
H	  20.1492000000	   5.8442500000	  11.0956000000
H	  21.7187000000	   5.5303400000	  11.8828000000
S	  17.7002000000	   8.0505500000	  12.6798000000
S	  17.8941000000	   7.0571600000	  14.4863000000
S	  17.3958000000	   5.0029300000	  14.5279000000
S	  14.7061000000	   6.1973600000	  18.1137000000
S	  12.7776000000	   6.6290200000	  18.7164000000
S	  12.5409000000	   6.6632000000	  20.8890000000
S	  15.0612000000	   4.3537000000	  17.1538000000
S	  15.3178000000	   4.6612200000	  15.0743000000
S	  19.4682000000	  10.8034000000	   6.3805200000
S	  17.3903000000	  10.3794000000	   6.0702700000
S	  17.1738000000	   8.5930500000	   4.9849500000
S	  18.2034000000	   6.6704300000	   9.0525100000
S	  19.8817000000	   7.9829900000	   8.8686000000
S	  19.7712000000	   9.6364200000	  10.1380000000
S	  17.7202000000	   5.9918900000	   7.1149700000
S	  16.2899000000	   7.0901500000	   6.1334400000
