39

Li	  48.0851000000	  32.9416000000	  56.9146000000
O	  45.3881000000	  30.5493000000	  57.9678000000
O	  46.4352000000	  31.9999000000	  56.6590000000
C	  45.7224000000	  29.8868000000	  56.8571000000
C	  46.0973000000	  30.9739000000	  55.7855000000
C	  45.5295000000	  31.8412000000	  57.6837000000
H	  46.5991000000	  29.3275000000	  57.0924000000
H	  44.9732000000	  29.1905000000	  56.4548000000
H	  46.8226000000	  30.6377000000	  55.0625000000
H	  45.1677000000	  31.2743000000	  55.1867000000
H	  44.6232000000	  32.3468000000	  57.4559000000
H	  45.9460000000	  32.3933000000	  58.6381000000
F	  50.0266000000	  31.4220000000	  53.1880000000
F	  49.4019000000	  30.6927000000	  55.1814000000
F	  51.4769000000	  30.9530000000	  54.7047000000
O	  49.0834000000	  33.4457000000	  55.3780000000
O	  47.5629000000	  34.6072000000	  57.3009000000
C	  49.3443000000	  34.7852000000	  55.6021000000
C	  47.9656000000	  35.3502000000	  56.1617000000
C	  50.3810000000	  32.8860000000	  55.0264000000
C	  50.2642000000	  31.4745000000	  54.5100000000
C	  46.7803000000	  35.4344000000	  58.2275000000
H	  50.2789000000	  34.8792000000	  56.2476000000
H	  49.6769000000	  35.3817000000	  54.6968000000
H	  48.1399000000	  36.3686000000	  56.4334000000
H	  47.2493000000	  35.3025000000	  55.3278000000
H	  51.1498000000	  32.9085000000	  55.8138000000
H	  50.8104000000	  33.4487000000	  54.1416000000
H	  46.3974000000	  34.8231000000	  58.9874970480
H	  47.2310000000	  36.3234000000	  58.7096000000
H	  45.8469000000	  35.8233000000	  57.8010000000
S	  48.9563000000	  31.3784000000	  58.2924000000
S	  50.7078000000	  32.4998000000	  58.7138000000
S	  52.4162000000	  31.2569000000	  58.9178470480
S	  56.6127000000	  31.6631000000	  55.8690000000
S	  58.0642000000	  30.3086000000	  55.2426000000
S	  59.7678658424	  31.3108000000	  54.9860000000
S	  55.8953000000	  31.3045000000	  57.8040000000
S	  54.1928000000	  32.3957000000	  58.5312000000
