38

Li	   3.3299300000	   1.2756000000	  58.3568000000
O	   4.2760900000	  -2.3826385211	  56.8258000000
O	   3.5550900000	  -0.4774385211	  57.6974000000
C	   2.8768200000	  -2.3828385211	  57.0459000000
C	   2.5977500000	  -1.4118385211	  58.1717000000
C	   4.6187400000	  -1.2212385211	  57.5094000000
H	   2.4586900000	  -2.0616385211	  56.1623000000
H	   2.5219500000	  -3.4019385211	  57.3896000000
H	   1.5988100000	  -1.0160385211	  58.1727000000
H	   2.7737000000	  -1.9047385211	  59.1412870480
H	   5.0344500000	  -1.4968385211	  58.5288000000
H	   5.4451600000	  -0.7067385211	  57.0434000000
O	   2.2876900000	   2.3138400000	  59.5668670480
O	   1.3979600000	   2.3343700000	  61.6624270480
C	   1.3270900000	   3.3984000000	  59.5171270480
C	   0.6032941576	   3.2984600000	  60.9171170480
C	   2.5763700000	   2.2762000000	  60.9591670480
H	   1.7683000000	   4.4276200000	  59.4257370480
H	   0.6677941576	   3.3068200000	  58.6702000000
H	   0.5299941576	   4.2286500000	  61.4848070480
H	  -0.3738058424	   2.8840300000	  60.7524970480
H	   3.0404100000	   1.3051700000	  61.1937070480
H	   3.1779400000	   3.1149400000	  61.2532270480
N	   7.0963700000	   0.0709614789	  60.2451170480
S	   6.4363300000	   1.4787000000	  60.0745470480
O	   5.1156000000	   1.3358200000	  59.5232870480
O	   6.6311100000	   2.4701900000	  61.1429370480
C	   7.4059000000	   2.1490600000	  58.6851000000
F	   8.7192900000	   2.1060400000	  58.8909070480
F	   7.1617400000	   3.3911800000	  58.2944000000
F	   7.2408400000	   1.4361200000	  57.5498000000
S	   8.1252900000	  -0.3990385211	  61.3321870480
O	   7.6883900000	  -0.0660385211	  62.6540770480
O	   9.5297100000	  -0.1947385211	  61.0053170480
C	   7.7942400000	  -2.1932385211	  61.3035570480
F	   7.0309800000	  -2.6810385211	  62.2789670480
F	   7.2296200000	  -2.5743385211	  60.2241470480
F	   8.8754400000	  -2.8777385211	  61.4366970480
