65

Li	   4.8532200000	  20.4680000000	  45.3251000000
O	   3.9731800000	  18.0940000000	  42.0587000000
O	   4.5648700000	  19.9172000000	  43.3423000000
C	   5.1141700000	  18.6084000000	  41.3928000000
C	   5.4684600000	  19.8616000000	  42.2225000000
C	   3.4707200000	  19.1206000000	  42.8882000000
H	   5.9497800000	  17.9352000000	  41.4998000000
H	   5.0298400000	  18.7569000000	  40.3098000000
H	   6.4720100000	  19.7943000000	  42.5417000000
H	   5.4372600000	  20.8209000000	  41.7416000000
H	   2.7622000000	  19.7306000000	  42.2661000000
H	   3.1016400000	  18.6545000000	  43.8161000000
F	   3.8433000000	  27.3569000000	  44.3735000000
F	   4.4888300000	  26.5100000000	  42.4837000000
F	   5.8784900000	  27.6559000000	  43.6934000000
O	   4.0835600000	  24.6483000000	  44.7938000000
O	   3.0120300000	  21.9409000000	  45.0073000000
C	   3.6654500000	  23.7959000000	  43.7452000000
C	   2.5253800000	  22.8664000000	  44.0738000000
C	   5.1675700000	  25.4750000000	  44.4366000000
C	   4.8546200000	  26.8080000000	  43.6907000000
C	   1.9342200000	  21.1439000000	  45.5246000000
H	   3.3791800000	  24.5077000000	  42.9340000000
H	   4.4218900000	  23.0999000000	  43.3229000000
H	   1.7123200000	  23.4634000000	  44.4416000000
H	   2.1840900000	  22.3552000000	  43.1810000000
H	   5.8472900000	  25.0302000000	  43.7110000000
H	   5.7492700000	  25.7041000000	  45.3448000000
H	   1.3007100000	  20.7187000000	  44.6893000000
H	   2.4334700000	  20.3272000000	  45.9655000000
H	   1.3226900000	  21.6354000000	  46.1854000000
F	   4.9385200000	  16.2350000000	  47.2693000000
F	   4.8826400000	  15.3723000000	  45.3971000000
F	   3.3433500000	  16.7870000000	  46.0172000000
O	   5.3809100000	  18.8232000000	  46.1216000000
O	   5.0046700000	  21.2414000000	  47.1152000000
C	   6.0184000000	  19.1336000000	  47.3711000000
C	   5.2232900000	  20.2504000000	  48.0968000000
C	   5.6510800000	  17.5274000000	  45.6470000000
C	   4.6454000000	  16.4890000000	  46.0319000000
C	   4.4766700000	  22.4433000000	  47.7372000000
H	   6.0960500000	  18.3186000000	  48.0593000000
H	   7.0585000000	  19.3915000000	  47.0816000000
H	   4.3824900000	  19.9909000000	  48.7329000000
H	   5.9022300000	  20.6575000000	  48.8747000000
H	   6.6923700000	  17.1514000000	  45.7518000000
H	   5.5934200000	  17.6331000000	  44.5902000000
H	   5.0426100000	  22.8639000000	  48.5759000000
H	   4.3407800000	  23.2839000000	  47.0311000000
H	   3.5610000000	  22.2863000000	  48.2806000000
N	   8.8705700000	  20.9882000000	  43.6286000000
S	   9.0569000000	  19.4404000000	  43.6059000000
O	   8.1672500000	  18.6482000000	  44.3949000000
O	   9.3621000000	  18.9937000000	  42.2526000000
C	  10.6185000000	  19.3546000000	  44.5435000000
F	  11.5079000000	  20.1147000000	  43.9934000000
F	  11.1950000000	  18.1706000000	  44.7375000000
F	  10.4678000000	  19.8818000000	  45.7602000000
S	   7.5820400000	  21.8157000000	  44.2338000000
O	   6.6545400000	  21.0039000000	  44.9291000000
O	   6.9827300000	  22.7608000000	  43.2606000000
C	   8.1955200000	  23.0365000000	  45.4681000000
F	   8.9886000000	  22.4852000000	  46.3176000000
F	   8.9128100000	  23.9847000000	  44.9705000000
F	   7.2170600000	  23.6297000000	  46.1426000000
