35

Li	   1.7287600000	  22.9289000000	  39.4800000000
O	   0.1172941576	  24.1914000000	  42.8850000000
O	   0.6814941576	  23.6908000000	  40.6880000000
C	  -0.0991058424	  25.3700000000	  42.1141000000
C	  -0.0818058424	  24.9089000000	  40.6572000000
C	   0.8360941576	  23.3714000000	  42.0140000000
H	  -1.0331058424	  25.8997000000	  42.3595000000
H	   0.8206941576	  25.9946000000	  42.3263000000
H	  -1.0864058424	  24.6763000000	  40.2246000000
H	   0.3015941576	  25.6388000000	  40.0398000000
H	   1.8945700000	  23.4806000000	  42.3146000000
H	   0.5400941576	  22.2897000000	  42.2648000000
N	   5.0235000000	  20.3625000000	  40.4959000000
S	   5.4778500000	  18.9068000000	  40.3241000000
O	   5.3526600000	  18.0439000000	  41.4576000000
O	   5.1954200000	  18.3071000000	  39.0071000000
C	   7.2941200000	  19.1069000000	  40.2096000000
F	   7.9378900000	  17.9693000000	  40.1691000000
F	   7.7706500000	  19.6967000000	  41.2900000000
F	   7.7186000000	  19.7917000000	  39.1364000000
S	   3.7616600000	  20.9375000000	  41.2900000000
O	   3.1434000000	  20.0194000000	  42.1664000000
O	   2.9281100000	  21.7985000000	  40.5135000000
C	   4.5713300000	  22.0792000000	  42.4684000000
F	   3.7112100000	  22.6541000000	  43.2642000000
F	   5.3643400000	  21.3657000000	  43.2004000000
F	   5.3180200000	  22.9260000000	  41.8130000000
S	   2.4685400000	  23.1118000000	  37.6343000000
S	   0.5466941576	  23.6575000000	  37.0196000000
S	  -0.1328058424	  22.5333000000	  35.3042000000
S	  -3.4623058424	  22.3544000000	  32.0636000000
S	  -4.9096058424	  23.2956000000	  30.8960000000
S	  -4.4224058424	  22.9535000000	  28.8945000000
S	  -2.6012058424	  23.8330000000	  33.3410000000
S	  -0.5680058424	  23.6868000000	  33.5537000000
