39

Li	  18.6647000000	  28.6870000000	  52.1403000000
O	  19.8790000000	  29.9240000000	  53.2500000000
O	  21.6029000000	  31.4245000000	  52.8381000000
C	  19.6536000000	  31.1500000000	  53.9980000000
C	  20.7416000000	  32.1219000000	  53.6612000000
C	  21.2664000000	  30.0881000000	  53.1345000000
H	  18.6142000000	  31.4825000000	  53.8305000000
H	  19.7989000000	  30.8399000000	  55.0990000000
H	  20.3848000000	  32.8450000000	  52.9068000000
H	  21.2364000000	  32.5645000000	  54.4790000000
H	  21.7944000000	  29.6882000000	  54.0209000000
H	  21.6188000000	  29.5760000000	  52.2459000000
F	  16.7285000000	  29.7958000000	  54.3378000000
F	  15.0000000000	  29.2765000000	  53.1914000000
F	  14.8563000000	  31.0549000000	  54.3574000000
O	  17.0575000000	  30.5127000000	  51.5646000000
O	  19.4358000000	  29.2863000000	  50.5698000000
C	  17.9770000000	  31.2341000000	  50.8378000000
C	  18.6698000000	  30.1981000000	  49.8866000000
C	  16.1334000000	  31.1617000000	  52.4432000000
C	  15.6648000000	  30.2715000000	  53.6341000000
C	  20.4888000000	  28.7285000000	  49.7440000000
H	  17.4109000000	  32.0088000000	  50.2469000000
H	  18.6550000000	  31.7450000000	  51.4361000000
H	  18.1348000000	  29.7517000000	  49.0621000000
H	  19.3124000000	  30.7828000000	  49.2184000000
H	  15.3564000000	  31.5589000000	  51.8942000000
H	  16.6371000000	  31.9961000000	  52.8403000000
H	  21.0803000000	  28.0133000000	  50.2126000000
H	  20.0682000000	  28.4257000000	  48.7731000000
H	  21.2447000000	  29.4249000000	  49.5330000000
S	  19.9000000000	  21.1671000000	  57.4719000000
S	  18.4537000000	  22.4447000000	  58.2988000000
S	  19.3455000000	  23.9520000000	  59.5965270480
S	  20.1457000000	  26.2116000000	  56.0889000000
S	  18.9196000000	  27.2337000000	  54.7376000000
S	  19.3430000000	  26.6759000000	  52.7311000000
S	  20.0844000000	  26.9559000000	  57.9825000000
S	  18.6713000000	  25.9004000000	  59.0981670480
