46

Li	  53.0873000000	   2.9801100000	  11.6994000000
O	  51.5234000000	   1.7951400000	  12.8980000000
O	  49.6234000000	   0.7666981764	  12.0994000000
C	  50.4913000000	   2.2857000000	  13.7206000000
C	  49.2138000000	   1.6530400000	  13.1028000000
C	  50.9663000000	   0.6416981764	  12.2955000000
H	  50.6323000000	   1.9645200000	  14.7943000000
H	  50.5841000000	   3.3733900000	  13.7314000000
H	  48.8718000000	   1.2347600000	  14.0673000000
H	  48.4108000000	   2.3957000000	  12.8397000000
H	  51.3331000000	   0.5739981764	  11.2932000000
H	  51.3113000000	  -0.3455018236	  12.7084000000
O	  53.4790000000	   3.3318300000	  13.5733000000
O	  55.1243000000	   2.9948400000	  12.1718000000
C	  53.8532000000	   4.6382100000	  13.2077000000
C	  54.9040000000	   4.4011100000	  12.0930000000
C	  54.6780000000	   2.6521900000	  13.4404000000
H	  52.9713000000	   5.2303700000	  12.8842000000
H	  54.1862000000	   5.1775100000	  14.1035000000
H	  54.4100000000	   4.8390800000	  11.2754000000
H	  55.7634000000	   5.0742100000	  12.2631000000
H	  55.2902000000	   2.9909300000	  14.2402000000
H	  54.4864000000	   1.5786000000	  13.5989000000
N	  53.5197000000	  -0.9019018236	   9.6503400000
S	  54.1428000000	   0.0567981764	  10.7469000000
O	  53.6953000000	   1.4253100000	  10.5868000000
O	  54.1234000000	  -0.4743018236	  12.0695000000
C	  55.9013000000	   0.0842981764	  10.2969000000
F	  56.4723000000	  -1.0105018236	  10.7307000000
F	  56.5754000000	   1.0687200000	  10.8010000000
F	  56.0828000000	   0.0885981764	   9.0051600000
S	  53.3258000000	  -2.5057018236	   9.7247500000
O	  52.5396000000	  -2.9666018236	  10.8250000000
O	  54.6436000000	  -3.0779018236	   9.4714400000
C	  52.3010000000	  -2.8505018236	   8.2503300000
F	  51.0323000000	  -2.3750018236	   8.4271400000
F	  52.7026000000	  -2.3217018236	   7.1113700000
F	  52.2361000000	  -4.1203018236	   8.0796500000
S	  48.6188000000	   6.6223200000	  18.3203000000
S	  47.7586000000	   4.9572400000	  17.2824000000
S	  48.2952000000	   4.8538700000	  15.2367000000
S	  48.5640000000	   4.8077400000	  10.9647000000
S	  50.6548000000	   4.8843000000	  11.1895000000
S	  51.9128000000	   3.8764500000	   9.8465200000
S	  47.5682000000	   6.1440000000	  12.2671000000
S	  46.7737000000	   5.0839000000	  13.8960000000
