57

Li	  45.7484000000	   5.5957700000	  36.6275000000
O	  45.7952000000	   3.7177100000	  36.9165000000
O	  47.1404000000	   2.3073600000	  35.8099000000
C	  46.6535000000	   3.0970600000	  37.8638000000
C	  47.8616000000	   2.5833900000	  37.0110000000
C	  45.8267000000	   2.7378100000	  35.8468000000
H	  46.9266000000	   3.8335800000	  38.5567000000
H	  46.1690000000	   2.3342900000	  38.4662000000
H	  48.5401000000	   3.4068600000	  36.7318000000
H	  48.3197000000	   1.7258400000	  37.4729000000
H	  45.0469000000	   2.0392500000	  36.0800000000
H	  45.5770000000	   3.1604600000	  34.8682000000
N	  46.6572000000	   7.7761400000	  33.3660000000
S	  47.2533000000	   6.3171400000	  33.5478000000
O	  48.6912000000	   6.1339300000	  33.1634000000
O	  46.8614000000	   5.6614400000	  34.8068000000
C	  46.3446000000	   5.4106800000	  32.2542000000
F	  46.4506000000	   4.1653900000	  32.4138000000
F	  46.8576000000	   5.7390600000	  31.0193000000
F	  45.0624000000	   5.6974800000	  32.2485000000
S	  46.2389000000	   8.7114900000	  34.5071000000
O	  47.0422000000	   9.8805500000	  34.6129000000
O	  45.7696000000	   8.0764200000	  35.6878000000
C	  44.5690000000	   9.3535900000	  33.8576000000
F	  44.5730000000	  10.0435000000	  32.7076000000
F	  43.7314000000	   8.4133500000	  33.5314000000
F	  43.9783000000	   9.9931200000	  34.8372000000
N	  42.2155000000	   5.2455200000	  37.3306000000
S	  42.6399000000	   5.5747100000	  35.8394000000
O	  41.7905000000	   6.4594500000	  35.1123000000
O	  44.0726000000	   5.7228700000	  35.6447000000
C	  42.4276000000	   3.8428000000	  35.1292000000
F	  41.1742000000	   3.4741600000	  35.0410000000
F	  43.0527000000	   2.9340900000	  35.8519000000
F	  42.8382000000	   3.7501300000	  33.9277000000
S	  43.1376000000	   5.4559700000	  38.6481000000
O	  42.4367000000	   6.1611100000	  39.6739000000
O	  44.5152000000	   5.9176300000	  38.3840000000
C	  43.2190000000	   3.7643900000	  39.3573000000
F	  42.6018000000	   2.7892300000	  38.5817000000
F	  44.4458000000	   3.3655900000	  39.5131000000
F	  42.6857000000	   3.6347400000	  40.5531000000
N	  49.6266000000	   6.8484200000	  36.5271000000
S	  48.5174000000	   6.9745000000	  37.6031000000
O	  48.3365000000	   8.3281800000	  38.0828000000
O	  47.3156000000	   6.1925800000	  37.4916000000
C	  49.3375000000	   6.1314400000	  39.0370000000
F	  50.4540000000	   6.6807500000	  39.3502000000
F	  49.7151000000	   4.8849000000	  38.7215000000
F	  48.5742000000	   6.0077500000	  40.1090000000
S	  50.3176000000	   8.0545500000	  35.6830000000
O	  49.5656000000	   9.3117400000	  35.7115000000
O	  50.8198000000	   7.6059300000	  34.4375000000
C	  51.8650000000	   8.4506200000	  36.6398000000
F	  51.6099000000	   8.8216000000	  37.8941000000
F	  52.7103000000	   7.4479100000	  36.6773000000
F	  52.4247000000	   9.5094500000	  36.1181000000
