50

Li	  46.5843000000	  50.6964000000	  51.1550000000
O	  44.9991000000	  47.2842000000	  52.5768000000
O	  46.2815000000	  49.0687000000	  51.8838000000
C	  46.2316000000	  47.1313000000	  53.2840000000
C	  47.1078000000	  48.0802000000	  52.4688000000
C	  45.0033000000	  48.6351000000	  52.2804000000
H	  46.1336000000	  47.4402000000	  54.3369000000
H	  46.4764000000	  46.1341000000	  53.1010000000
H	  47.9239000000	  48.5903000000	  52.9016000000
H	  47.5928000000	  47.5300000000	  51.6099000000
H	  44.2001000000	  48.7930000000	  51.5494000000
H	  44.5558000000	  49.2810000000	  53.0543000000
O	  43.5949000000	  53.1913000000	  49.8654000000
O	  45.2075000000	  51.9019000000	  50.9276000000
C	  43.2118000000	  53.0616000000	  51.1965000000
C	  44.2302000000	  52.1987000000	  51.8859000000
C	  44.9060000000	  52.8350000000	  49.9027000000
H	  43.2588000000	  54.1067000000	  51.5500000000
H	  42.1859000000	  52.7455000000	  51.2251000000
H	  44.7319000000	  52.7649000000	  52.6642000000
H	  43.8571000000	  51.3001000000	  52.3072000000
H	  45.0668000000	  52.4085000000	  48.9659000000
H	  45.4677000000	  53.7907000000	  50.0724000000
O	  48.3104000000	  50.9300000000	  50.5899000000
C	  47.4427000000	  49.9955000000	  48.6139000000
C	  48.7123000000	  53.0620000000	  51.7733000000
C	  48.3556000000	  51.1252000000	  49.2017000000
C	  49.2942000000	  51.7123000000	  51.3009000000
C	  48.1359000000	  48.6464000000	  48.6707000000
C	  49.6552000000	  53.8866000000	  52.7015000000
C	  47.2433000000	  47.5016000000	  48.1479000000
C	  48.9269000000	  54.9405000000	  53.5035000000
H	  46.4861000000	  49.9944000000	  49.0654000000
H	  47.3666000000	  50.3512000000	  47.5747000000
H	  48.4840000000	  53.5929000000	  50.8231000000
H	  47.6579000000	  53.0031000000	  52.2116000000
H	  48.0214000000	  52.1042000000	  48.9205000000
H	  49.3899000000	  51.0134000000	  48.7862000000
H	  49.5569000000	  51.1681000000	  52.2385000000
H	  50.2397000000	  51.8584000000	  50.6720000000
H	  48.9867000000	  48.6784000000	  48.0000000000
H	  48.4338000000	  48.5091000000	  49.7191000000
H	  49.9335000000	  53.1379000000	  53.4626000000
H	  50.5137000000	  54.3057000000	  52.1725000000
H	  47.2911000000	  47.7242000000	  47.0669000000
H	  47.6219000000	  46.5562000000	  48.5654000000
H	  46.2042000000	  47.6431000000	  48.5091000000
H	  48.2640000000	  54.5197000000	  54.3131000000
H	  49.7678000000	  55.5317000000	  53.8671000000
H	  48.3796000000	  55.4821000000	  52.8063000000
