69

Li	  31.7255000000	  10.0798000000	  58.8911000000
O	  32.7382000000	   8.2659100000	  58.8038000000
O	  33.6626000000	   6.2370500000	  58.5581000000
C	  32.9256000000	   7.7550200000	  60.1240564425
C	  33.2858000000	   6.3689200000	  59.9063464425
C	  32.9749000000	   7.1806300000	  57.8886000000
H	  33.7279000000	   8.2657200000	  60.6293364425
H	  32.0732000000	   7.8544800000	  60.7524164425
H	  34.0381000000	   5.9907700000	  60.6326864425
H	  32.3638000000	   5.6982900000	  59.9646264425
H	  32.0646000000	   6.8053100000	  57.4768000000
H	  33.4115000000	   7.4529700000	  56.9982000000
O	  33.0647000000	  11.3384000000	  59.4587164425
C	  31.8963000000	  11.1779000000	  61.6060264425
C	  34.7081000000	  13.1073000000	  58.6372000000
C	  33.0040000000	  11.7915000000	  60.8092464425
C	  34.3056000000	  11.6042000000	  58.8499000000
C	  30.5501000000	  11.9934000000	  61.5240464425
C	  34.0190000000	  13.7115000000	  57.5105000000
C	  29.4711000000	  11.2932000000	  62.3369764425
C	  34.4193000000	  15.1961000000	  57.4496000000
H	  31.8014000000	  10.0998000000	  61.2899064425
H	  32.1074000000	  11.2434000000	  62.6827364425
H	  34.6262000000	  13.7307000000	  59.5663564425
H	  35.7307000000	  13.0017000000	  58.4138000000
H	  33.9131000000	  11.4422000000	  61.2743864425
H	  33.0231000000	  12.8588000000	  60.8816664425
H	  34.9976000000	  11.0982000000	  59.4604164425
H	  34.3243000000	  11.0800000000	  57.8564000000
H	  30.7588000000	  13.0240000000	  62.0539464425
H	  30.2648000000	  11.9970000000	  60.4915264425
H	  34.2761000000	  13.2228000000	  56.6045000000
H	  32.9077000000	  13.5928000000	  57.6129000000
H	  29.8030000000	  10.6465000000	  63.1406464425
H	  28.7950000000	  12.0069000000	  62.7243864425
H	  28.8010000000	  10.6656000000	  61.7569064425
H	  34.0113000000	  15.7514000000	  56.6109000000
H	  34.1146000000	  15.7443000000	  58.3194000000
H	  35.5428000000	  15.3012000000	  57.3491000000
N	  27.4561000000	   9.3934600000	  59.4644064425
S	  28.7747000000	   8.7291300000	  59.9242164425
O	  29.9737000000	   9.4778900000	  59.5822064425
O	  28.6175000000	   8.1171600000	  61.2379764425
C	  28.9747000000	   7.3137200000	  58.8417000000
F	  27.8389000000	   6.7319500000	  58.5891000000
F	  29.8885000000	   6.4457400000	  59.2593164425
F	  29.3498000000	   7.8292900000	  57.6586000000
S	  27.2432000000	  10.7942000000	  58.7658000000
O	  28.0071000000	  11.0813000000	  57.5485000000
O	  27.1711000000	  11.8579000000	  59.7481764425
C	  25.5335000000	  10.8512000000	  58.2219000000
F	  24.7415000000	  10.9294000000	  59.3458864425
F	  25.2806000000	  11.9581000000	  57.5382000000
F	  25.0765000000	   9.8652500000	  57.5059000000
N	  30.1563000000	  11.7496000000	  55.0539000000
S	  30.7982000000	  10.3482000000	  55.4221000000
O	  31.2351000000	  10.2357000000	  56.7732000000
O	  30.2959000000	   9.1664100000	  54.8101000000
C	  32.4135000000	  10.5595000000	  54.5297000000
F	  33.1770000000	   9.4648800000	  54.5490000000
F	  33.1573000000	  11.5525000000	  54.9868000000
F	  32.2698000000	  10.7841000000	  53.2207000000
S	  28.8745000000	  12.1548000000	  54.2759000000
O	  28.4735000000	  13.5030000000	  54.5629000000
O	  27.8958000000	  11.1455000000	  54.1357000000
C	  29.4697000000	  12.3624000000	  52.5807000000
F	  28.4938000000	  12.7477000000	  51.7343000000
F	  30.3572000000	  13.3897000000	  52.4136000000
F	  30.1813000000	  11.2844000000	  52.2008000000
