35

Li	  15.0299000000	  46.7712000000	  55.0679000000
O	  15.1782000000	  47.7532000000	  53.2099000000
O	  14.2690000000	  47.6222000000	  51.1455000000
C	  14.7221000000	  49.0490000000	  52.9676000000
C	  13.9712000000	  48.8931000000	  51.6373000000
C	  15.1704000000	  47.0593000000	  51.9949000000
H	  14.1405000000	  49.5439000000	  53.7230000000
H	  15.6009000000	  49.6054000000	  52.8221000000
H	  12.8707000000	  48.8418000000	  51.8696000000
H	  14.2267000000	  49.6741000000	  50.8909000000
H	  16.1831000000	  47.1712000000	  51.4076000000
H	  14.9312000000	  46.0156000000	  52.0166000000
N	  18.4402000000	  47.6877000000	  55.3451000000
S	  18.2242000000	  46.2603000000	  54.7202000000
O	  19.1318000000	  45.2783000000	  55.2864000000
O	  16.8460000000	  45.9223000000	  54.6370000000
C	  18.7256000000	  46.4666000000	  52.9873000000
F	  19.9942000000	  46.6251000000	  52.8998000000
F	  18.2548000000	  47.6225000000	  52.3886000000
F	  18.3769000000	  45.4447000000	  52.1909000000
S	  17.4025000000	  48.5583000000	  56.2101000000
O	  17.7167000000	  48.4551000000	  57.6337000000
O	  16.0714000000	  48.4954000000	  55.7610000000
C	  17.8623000000	  50.2521000000	  55.8851000000
F	  17.7905000000	  50.4823000000	  54.5934000000
F	  17.1068000000	  51.1238000000	  56.5434000000
F	  19.1157000000	  50.5357000000	  56.1808000000
S	  13.5678000000	  45.2520000000	  55.0666000000
S	  12.7132000000	  47.1626000000	  55.4051000000
S	  13.2107000000	  47.9500000000	  57.2656000000
S	  10.6236000000	  44.3352000000	  58.9144000000
S	  11.9330000000	  42.8145000000	  58.3693000000
S	  11.9703000000	  42.6607000000	  56.3425000000
S	  11.6920000000	  45.9853000000	  59.6934264425
S	  11.5389000000	  47.7398000000	  58.5504000000
