81

Li	  33.9262000000	  44.5689000000	  52.3650000000
O	  35.0328000000	  43.4507000000	  56.5338000000
O	  34.1887000000	  44.1472000000	  54.5280000000
C	  36.0109000000	  44.1851000000	  55.8857000000
C	  35.2299000000	  44.9790000000	  54.8952000000
C	  33.8821000000	  43.4929000000	  55.7291000000
H	  36.6260000000	  44.7788000000	  56.5282000000
H	  36.6477000000	  43.4513000000	  55.4010000000
H	  34.6962000000	  45.8258000000	  55.4228000000
H	  35.9731000000	  45.2082000000	  54.1071000000
H	  33.6195000000	  42.4875000000	  55.4191000000
H	  32.9714000000	  43.9532000000	  56.1243000000
O	  32.2377000000	  45.1421000000	  53.2367000000
C	  31.5510000000	  42.9636000000	  52.7611000000
C	  31.3275000000	  46.6474000000	  54.9611000000
C	  31.0694000000	  44.3032000000	  53.1137000000
C	  31.9992000000	  46.4893000000	  53.5705000000
C	  30.3758000000	  42.1525000000	  52.1093000000
C	  30.7440000000	  48.0876000000	  55.0429000000
C	  30.8967000000	  40.7331000000	  51.8993000000
C	  30.5107000000	  48.4415000000	  56.6008000000
H	  32.3323000000	  43.0234000000	  51.9820000000
H	  31.7627000000	  42.4898000000	  53.7226000000
H	  30.5519000000	  45.9408000000	  55.2161000000
H	  32.1198000000	  46.5034000000	  55.7063000000
H	  30.5461000000	  44.2902000000	  54.0722000000
H	  30.4296000000	  44.7619000000	  52.3903000000
H	  32.8820000000	  47.1226000000	  53.6520000000
H	  31.3092000000	  46.8205000000	  52.8293000000
H	  29.4661000000	  42.1611000000	  52.7444000000
H	  30.0927000000	  42.6173000000	  51.1462000000
H	  31.5499000000	  48.7618000000	  54.6736000000
H	  29.8264000000	  48.2608000000	  54.3889000000
H	  30.9923000000	  40.2466000000	  52.8659000000
H	  30.1560000000	  40.2219000000	  51.3000000000
H	  31.9110000000	  40.6340000000	  51.4819000000
H	  30.2190000000	  49.4899000000	  56.6867000000
H	  29.7455000000	  47.8610000000	  57.0845000000
H	  31.4711000000	  48.4600000000	  57.0737000000
O	  33.8417000000	  45.7895000000	  50.9759000000
C	  32.9576000000	  44.4490000000	  49.3524000000
C	  35.8606000000	  47.3114000000	  50.7008000000
C	  33.3130000000	  45.8619000000	  49.7369000000
C	  34.4615000000	  47.0428000000	  51.3913000000
C	  32.1020000000	  44.3709000000	  48.1227000000
C	  36.9686000000	  46.3775000000	  51.2533000000
C	  31.6761000000	  42.9558000000	  47.8603000000
C	  38.3330000000	  46.5320000000	  50.6270000000
H	  33.8865000000	  43.8656000000	  49.1881000000
H	  32.4577000000	  44.0395000000	  50.2045000000
H	  35.8009000000	  47.1395000000	  49.6664000000
H	  36.1509000000	  48.3719000000	  50.8149000000
H	  32.4108000000	  46.4696000000	  49.7161000000
H	  34.0930000000	  46.1781000000	  49.0368000000
H	  33.6686000000	  47.8446000000	  51.2291000000
H	  34.5040000000	  47.0867000000	  52.5210000000
H	  31.2054000000	  44.9385000000	  48.4175000000
H	  32.6421000000	  44.7791000000	  47.2488000000
H	  37.0147000000	  46.5206000000	  52.2805000000
H	  36.5431000000	  45.3670000000	  51.2388000000
H	  32.5149000000	  42.2399000000	  47.8504000000
H	  31.0815000000	  42.6653000000	  48.6949000000
H	  31.0799000000	  42.8521000000	  46.9808000000
H	  38.4178000000	  46.6567000000	  49.5694000000
H	  38.8881000000	  47.3916000000	  50.9996000000
H	  38.8387000000	  45.6566000000	  50.8028000000
N	  36.7688000000	  41.5434000000	  53.2866000000
S	  35.4457000000	  41.8208000000	  52.4131000000
O	  34.3103000000	  41.1144000000	  52.9278000000
O	  35.3519000000	  43.2109000000	  51.9919000000
C	  35.9079000000	  40.9583000000	  50.8195000000
F	  36.1058000000	  39.6205000000	  50.9793000000
F	  37.1127000000	  41.4089000000	  50.3543000000
F	  35.0024000000	  41.1411000000	  49.8639000000
S	  36.9322000000	  40.4112000000	  54.3571000000
O	  36.4755000000	  39.0971000000	  54.0022000000
O	  36.5196000000	  40.8446000000	  55.6720000000
C	  38.7448000000	  40.1318000000	  54.4428000000
F	  39.2555000000	  40.1755000000	  53.1876000000
F	  39.3734000000	  41.0988000000	  55.0516000000
F	  39.0740000000	  38.9936000000	  55.0584000000
