47

Li	   5.7512100000	  23.4243000000	  44.0194000000
O	   6.4838400000	  23.3403000000	  42.3052000000
O	   5.8524500000	  23.9661000000	  40.2608000000
C	   6.8157100000	  22.2343000000	  41.4523000000
C	   6.2308700000	  22.5957000000	  40.0955000000
C	   6.4502800000	  24.3696000000	  41.4105000000
H	   7.9067500000	  22.2174000000	  41.2937000000
H	   6.6394300000	  21.2869000000	  41.8736000000
H	   6.9584900000	  22.5623000000	  39.2462000000
H	   5.3629200000	  21.9578000000	  39.8536000000
H	   5.9114300000	  25.2041000000	  41.9015000000
H	   7.4459600000	  24.7539000000	  41.2172000000
O	   6.7239100000	  22.2201000000	  45.0389000000
C	   4.8980700000	  20.7713000000	  44.5674000000
C	   8.5698100000	  23.8703000000	  45.4861000000
C	   5.9743000000	  21.1336000000	  45.6234000000
C	   7.6830700000	  22.6928000000	  46.0073000000
C	   4.4809100000	  19.3485000000	  44.7394000000
C	   9.3410300000	  23.5281000000	  44.2845000000
C	   5.3692300000	  18.3184000000	  43.9834000000
C	   9.7373800000	  24.7039000000	  43.4459000000
H	   4.1288300000	  21.4555000000	  44.7718000000
H	   5.2393700000	  20.8935000000	  43.4854000000
H	   7.8183300000	  24.6053000000	  45.2902000000
H	   9.2371500000	  24.2352000000	  46.2077000000
H	   6.5700000000	  20.2883000000	  45.8580000000
H	   5.5499300000	  21.3941000000	  46.5901000000
H	   7.1801700000	  23.0217000000	  46.8964000000
H	   8.4387900000	  21.9297000000	  46.3259000000
H	   4.4433100000	  19.0350000000	  45.7804000000
H	   3.4619600000	  19.2297000000	  44.3816000000
H	  10.2278000000	  22.9320000000	  44.5949000000
H	   8.8492500000	  22.8475000000	  43.5849000000
H	   6.4245800000	  18.5426000000	  44.0422000000
H	   5.1764700000	  17.2722000000	  44.2502000000
H	   5.2112700000	  18.2764000000	  42.8827000000
H	  10.3466000000	  24.3833000000	  42.6894000000
H	   8.8803900000	  25.1571000000	  42.9271000000
H	  10.3498000000	  25.4346000000	  44.0166000000
S	  -5.9762164425	  24.8963000000	  44.1265000000
S	  -4.0905164425	  24.9857000000	  45.3114000000
S	  -3.3989164425	  26.9309000000	  45.4630000000
S	   0.8425835575	  25.6400000000	  43.9112000000
S	   2.8836900000	  25.7470000000	  43.6160000000
S	   4.1258000000	  24.4866000000	  44.8438000000
S	  -0.0431164425	  27.5554000000	  44.6232000000
S	  -1.4318164425	  27.1399000000	  46.1920000000
