43

Li	  21.7948000000	   9.0488700000	  48.2815000000
O	  23.8162000000	   5.7498800000	  47.6565000000
O	  22.6059000000	   7.3949900000	  48.4836000000
C	  22.6074000000	   5.2314000000	  47.9703000000
C	  21.9640000000	   6.1952300000	  48.9870000000
C	  23.8587000000	   7.0284100000	  48.2314000000
H	  22.0830000000	   5.2220800000	  47.0572000000
H	  22.6407000000	   4.1691200000	  48.3139000000
H	  20.9052000000	   6.2407700000	  48.7871000000
H	  22.2854000000	   6.0318000000	  50.0629000000
H	  24.4205000000	   6.9805400000	  49.1917000000
H	  24.3775000000	   7.7742800000	  47.6053000000
N	  20.9226000000	  10.0894000000	  52.5287000000
S	  20.9752000000	  10.7084000000	  51.1192000000
O	  21.6909000000	  10.0421000000	  50.0518000000
O	  19.7994000000	  11.4354000000	  50.8086000000
C	  22.1773000000	  12.0876000000	  51.5359000000
F	  22.3503000000	  12.8979000000	  50.5378000000
F	  23.3478000000	  11.5330000000	  51.7948000000
F	  21.9267000000	  12.8133000000	  52.5991000000
S	  21.3707000000	   8.5559300000	  52.8462000000
O	  22.3098000000	   7.9058200000	  51.9480000000
O	  20.2695000000	   7.7580100000	  53.3193000000
C	  22.3209000000	   8.7663500000	  54.3493000000
F	  22.7420000000	   7.6629500000	  54.9577000000
F	  23.4183000000	   9.5076400000	  54.0885000000
F	  21.5669000000	   9.4163400000	  55.2459000000
S	  13.9256000000	   4.6952100000	  39.5923000000
S	  14.8107000000	   4.3744600000	  41.5441000000
S	  15.9790000000	   5.8360300000	  42.3685000000
S	  20.1755000000	   7.0656200000	  44.9369000000
S	  20.6209000000	   8.9259600000	  45.6151000000
S	  19.7775000000	   9.4172000000	  47.5173000000
S	  19.3366000000	   7.0170900000	  42.9469000000
S	  18.0446000000	   5.4167500000	  42.4628000000
S	  23.3806000000	  10.4111000000	  47.1707000000
S	  25.2224000000	  10.7575000000	  48.1075000000
S	  25.5313000000	   9.9736100000	  50.0818000000
S	  30.0379000000	   6.8105800000	  49.8662000000
S	  30.2713000000	   6.0239200000	  51.8361000000
S	  31.9322000000	   6.7965600000	  52.6906000000
S	  28.8722000000	   8.5452500000	  49.8433000000
S	  26.8016000000	   8.2946900000	  49.7588000000
