24

Li	   5.3237800000	   1.4636200000	  48.3158000000
N	   6.1203300000	   2.0379500000	  52.2170000000
S	   7.0730900000	   1.2266100000	  51.3573000000
O	   7.4322000000	  -0.0214018236	  52.0014000000
O	   6.7552400000	   1.2042700000	  49.9105000000
C	   8.5967500000	   2.2555200000	  51.3110000000
F	   9.0255300000	   2.4380900000	  52.5311000000
F	   8.3490800000	   3.5209700000	  50.8027000000
F	   9.5939600000	   1.7510400000	  50.6019000000
S	   4.6991200000	   1.6567700000	  52.6365000000
O	   4.4782500000	   1.3515200000	  54.0974000000
O	   4.1343400000	   0.7724981764	  51.6962000000
C	   3.7427400000	   3.1841300000	  52.3783000000
F	   4.1919000000	   4.0559900000	  53.2106000000
F	   3.9303600000	   3.7153100000	  51.1688000000
F	   2.4227300000	   3.0828200000	  52.6141000000
S	   4.2344000000	   2.6985400000	  46.9273000000
S	   5.6479600000	   3.8322900000	  47.9954000000
S	   7.4021400000	   4.2735400000	  46.7936000000
S	   8.1675000000	  -0.1613018236	  47.1755000000
S	   6.1607100000	  -0.3316018236	  46.3885000000
S	   4.7349700000	  -0.6037018236	  47.9816000000
S	   9.2283800000	   1.3695000000	  46.2357000000
S	   9.1595700000	   3.1983500000	  47.3297000000
