28

Li	   8.6959200000	  15.2802000000	  28.6499000000
O	   9.2476000000	  13.1679000000	  31.6543000000
O	   8.6479100000	  14.9666000000	  30.5489000000
C	   9.8006900000	  14.1999000000	  32.4131000000
C	   9.5663300000	  15.4394000000	  31.5106000000
C	   8.1765800000	  13.8227000000	  31.1270000000
H	   9.2618100000	  14.3497000000	  33.3537000000
H	  10.8811000000	  14.0312000000	  32.7024000000
H	   9.2950000000	  16.3095000000	  32.0925000000
H	  10.4438000000	  15.6437000000	  30.9732000000
H	   7.6719900000	  13.2859000000	  30.3912000000
H	   7.3807100000	  14.0002000000	  31.8876000000
S	   9.2385300000	  17.3071000000	  27.9539000000
S	   7.8774800000	  17.9854000000	  29.4661000000
S	   7.8220900000	  20.0880000000	  29.4965000000
S	  11.4771000000	  22.8835000000	  32.5029000000
S	  12.4999000000	  22.0467000000	  34.1022000000
S	  14.6129000000	  22.1495000000	  33.7248000000
S	  10.8745000000	  21.4726000000	  31.0654000000
S	   8.7305100000	  21.1006000000	  31.0877000000
S	   6.7956300000	  14.6711000000	  24.1412000000
S	   8.4540000000	  16.1044000000	  23.8951000000
S	  10.2695000000	  15.1903000000	  23.5584000000
S	  10.0445000000	  13.5547000000	  27.9558000000
S	   8.0336100000	  13.1122000000	  27.6019000000
S	   6.8939400000	  14.8428000000	  27.5972000000
S	  11.4059000000	  13.3667000000	  26.3100000000
S	  11.5195000000	  15.1786000000	  25.1711000000
