51

Li	  34.1482000000	  58.3218000000	  21.8569000000
O	  34.9009000000	  58.7306000000	  23.6867000000
C	  33.0343000000	  60.0218018236	  24.5083000000
C	  36.4785000000	  57.2366000000	  22.7942000000
C	  34.5951000000	  59.8643118236	  24.5335000000
C	  36.2740000000	  58.5220000000	  23.6392000000
C	  32.6029000000	  61.3304918236	  25.1391000000
C	  38.0204000000	  56.8806000000	  22.6796000000
C	  31.1159000000	  61.6001018236	  25.0251000000
C	  38.1427000000	  55.7489000000	  21.6457000000
H	  32.6208000000	  60.0406418236	  23.4764000000
H	  32.5179000000	  59.1637408236	  24.9060000000
H	  36.0701000000	  56.4200000000	  23.4506000000
H	  35.9478000000	  57.1482000000	  21.8510000000
H	  34.9069000000	  59.6457518236	  25.5309000000
H	  35.0572000000	  60.8325518236	  24.2391000000
H	  36.6651000000	  59.4372118236	  23.1848000000
H	  36.7481000000	  58.5155000000	  24.6609000000
H	  32.9606000000	  61.3758118236	  26.1983000000
H	  33.0462000000	  62.1436518236	  24.5343000000
H	  38.5346000000	  57.7590000000	  22.2903000000
H	  38.4924000000	  56.6292000000	  23.6472000000
H	  30.4796000000	  60.7636718236	  25.5155000000
H	  30.7995000000	  62.5614318236	  25.2971000000
H	  30.9176000000	  61.5712418236	  23.9832000000
H	  37.2858000000	  55.0235000000	  21.5352000000
H	  38.0199000000	  56.3644000000	  20.7113000000
H	  39.0956000000	  55.2138000000	  21.6423000000
N	  36.9600000000	  60.5502418236	  20.5386000000
S	  38.2176000000	  60.9421318236	  19.7580000000
O	  38.2258000000	  60.5586118236	  18.3684000000
O	  38.7057000000	  62.2615218236	  20.1728000000
C	  39.4311000000	  59.8224318236	  20.4914000000
F	  40.6710000000	  60.1170018236	  20.0557000000
F	  39.0993000000	  58.6195000000	  20.2053000000
F	  39.4133000000	  59.8556218236	  21.8240000000
S	  35.5040000000	  60.7627218236	  20.1793000000
O	  34.6330000000	  59.8101918236	  20.8856000000
O	  35.1885000000	  61.1744318236	  18.8339000000
C	  35.0534000000	  62.3114918236	  21.1038000000
F	  35.8042000000	  63.2608718236	  20.6113000000
F	  33.8065000000	  62.7196718236	  20.9260000000
F	  35.1886000000	  62.3625518236	  22.4049000000
S	  33.0995000000	  56.9100000000	  20.5684000000
S	  31.8451000000	  57.8701000000	  22.0736000000
S	  30.3901000000	  59.0443000000	  21.1921000000
S	  32.3973000000	  62.1325618236	  18.2427000000
S	  32.1690000000	  60.6999318236	  16.7851000000
S	  32.9541000000	  58.8019000000	  17.3227000000
S	  30.5638000000	  62.0622918236	  19.4526000000
S	  30.8546000000	  61.2046518236	  21.3266000000
