43

Li	  12.7655000000	  10.0431000000	  36.7024000000
O	  11.3480000000	   9.8746200000	  38.0241000000
O	   9.7602400000	   9.1133700000	  39.3982000000
C	  10.8561000000	  10.9737000000	  38.6649000000
C	   9.6342200000	  10.4412000000	  39.4303000000
C	  10.3839000000	   8.9034100000	  38.1393000000
H	  11.6842000000	  11.4523000000	  39.2351000000
H	  10.4552000000	  11.6500000000	  37.9002000000
H	   9.5819500000	  10.7908000000	  40.4459000000
H	   8.6815000000	  10.7336000000	  38.9332000000
H	   9.7419700000	   8.8001800000	  37.3146000000
H	  10.8853000000	   7.8984700000	  38.1931000000
N	  12.1619000000	  11.9865000000	  33.0940000000
S	  13.7317000000	  11.6761000000	  33.2349000000
O	  14.1063000000	  11.0353000000	  34.4478000000
O	  14.5320000000	  11.4693000000	  32.0217000000
C	  14.2338000000	  13.3456000000	  33.7258000000
F	  13.8927000000	  13.6827000000	  34.9326000000
F	  13.8205000000	  14.2724000000	  32.9497000000
F	  15.5391000000	  13.4128000000	  33.7380000000
S	  11.0526000000	  11.4633000000	  34.0790000000
O	  11.5014000000	  10.7570000000	  35.2490000000
O	   9.9617600000	  10.8250000000	  33.3669000000
C	  10.2883000000	  12.9626000000	  34.7370000000
F	  11.1028000000	  13.8792000000	  35.2276000000
F	   9.4430200000	  13.4933000000	  33.8210000000
F	   9.5042500000	  12.6641000000	  35.7966000000
S	  13.5634000000	   8.1673500000	  36.2122000000
S	  12.6035000000	   7.8340800000	  34.3640000000
S	  11.0805000000	   6.3440900000	  34.6722000000
S	   6.0514600000	   6.9413700000	  33.6425000000
S	   4.5494100000	   5.5951400000	  33.9837000000
S	   2.9543500000	   6.3280600000	  35.2733000000
S	   7.7185400000	   6.5647300000	  34.7770000000
S	   9.3572200000	   6.2565900000	  33.5134000000
S	  14.2986000000	  11.5610000000	  37.7971000000
S	  15.1028000000	   9.9576300000	  39.0891000000
S	  17.2566000000	   9.9244900000	  39.3737000000
S	  21.3033000000	  10.1994000000	  41.9420000000
S	  21.4753000000	   9.7959300000	  44.0136000000
S	  23.0961000000	  10.8862000000	  44.8240000000
S	  19.6750000000	  11.4945000000	  41.3987000000
S	  17.8915000000	  10.2993000000	  41.3394000000
