35

Li	  17.1376000000	  10.5531000000	  46.6892000000
O	  17.6030000000	  10.7341000000	  42.8109000000
O	  17.1585000000	  10.8999000000	  44.9432000000
C	  18.6163000000	  11.6236000000	  43.2265000000
C	  18.1187000000	  11.8928000000	  44.6806000000
C	  17.2393000000	  10.0274000000	  43.9092000000
H	  19.5258000000	  10.9919000000	  43.1802000000
H	  18.7059000000	  12.4880000000	  42.6221000000
H	  18.9745000000	  11.8508000000	  45.3842000000
H	  17.6115000000	  12.8255000000	  44.7630000000
H	  16.2911000000	   9.6293400000	  43.7005000000
H	  17.9590000000	   9.1700300000	  44.0555000000
N	  13.7445000000	  11.7290000000	  46.7493000000
S	  14.9436000000	  12.7026000000	  47.0772000000
O	  16.1515000000	  12.0119000000	  47.4871000000
O	  15.1448000000	  13.6947000000	  46.0484000000
C	  14.4204000000	  13.5025000000	  48.6027000000
F	  13.4357000000	  14.3176000000	  48.3263000000
F	  15.3441000000	  14.2806000000	  49.1320000000
F	  14.0621000000	  12.6079000000	  49.4986000000
S	  13.8865000000	  10.2802000000	  46.1507000000
O	  15.1948000000	   9.6863300000	  46.4275000000
O	  13.3845000000	  10.2033000000	  44.7950000000
C	  12.6509000000	   9.4406900000	  47.1229000000
F	  12.8350000000	   9.7174300000	  48.3829000000
F	  11.3727000000	   9.7291400000	  46.7892000000
F	  12.7663000000	   8.1643700000	  47.0357000000
S	  15.0977000000	   3.7134500000	  39.9312000000
S	  16.8048000000	   3.0463500000	  40.9945000000
S	  16.6876000000	   3.3405200000	  43.0746000000
S	  17.4289000000	   6.8774600000	  46.0259000000
S	  19.1872000000	   7.6118600000	  46.9216000000
S	  18.7181000000	   9.6420600000	  47.6139000000
S	  17.6985000000	   6.3780200000	  43.9930000000
S	  18.3479000000	   4.3952000000	  43.6426000000
