28

Li	  13.2605000000	   5.3700700000	  36.3042000000
O	  10.3979000000	   3.7434700000	  38.8253000000
O	  11.8230000000	   4.4832500000	  37.2596000000
C	  10.1813000000	   2.9734600000	  37.6333000000
C	  10.6384000000	   4.0150500000	  36.6292000000
C	  11.5266000000	   4.4676200000	  38.6503000000
H	  10.8239000000	   2.1109300000	  37.5895000000
H	   9.1738100000	   2.5404600000	  37.6023000000
H	  10.6913000000	   3.6365400000	  35.6287000000
H	   9.8266600000	   4.7023200000	  36.5624000000
H	  11.2723000000	   5.4179800000	  39.1389000000
H	  12.3027000000	   4.0471800000	  39.2638000000
S	  13.6733000000	   3.8622700000	  34.6754000000
S	  13.3650000000	   5.8633000000	  34.0642000000
S	  11.4027000000	   6.3201000000	  33.5137000000
S	   7.1380700000	   7.9834700000	  33.8804000000
S	   6.1181600000	   9.7126700000	  34.6266000000
S	   4.0638800000	   9.4557900000	  35.1740000000
S	   8.4941300000	   6.9890800000	  35.3159000000
S	  10.5102000000	   7.5806300000	  34.8278000000
S	  14.4536000000	   6.7670100000	  37.4397000000
S	  16.1736000000	   5.7192300000	  38.0639000000
S	  17.2203000000	   6.9617800000	  39.4056000000
S	  18.9336000000	   6.0271500000	  44.3793000000
S	  19.8853000000	   7.8809800000	  44.8584000000
S	  18.7047000000	   9.4678700000	  45.8762000000
S	  18.8246000000	   5.7563000000	  42.3240000000
S	  17.0007000000	   6.3868500000	  41.4531000000
