64

Li	  57.3595000000	  48.3883000000	   5.7658800000
O	  54.2726000000	  50.9163000000	   4.3357100000
O	  55.7145000000	  49.2879000000	   4.5547800000
C	  53.7226000000	  49.9306000000	   3.4628000000
C	  54.7031000000	  48.7438000000	   3.6758900000
C	  55.0327000000	  50.3037000000	   5.2760300000
H	  52.6876000000	  49.7104000000	   3.7988200000
H	  53.6317000000	  50.3474000000	   2.4302900000
H	  54.1675000000	  47.9168000000	   4.2176700000
H	  55.0155000000	  48.1999000000	   2.7891100000
H	  55.8774000000	  50.8896000000	   5.6221600000
H	  54.4851000000	  49.7675000000	   6.0856700000
O	  58.7237000000	  47.1211000000	   6.6049900000
O	  60.0615464425	  45.7364000000	   7.7797200000
C	  60.0995264425	  47.5019000000	   6.4430500000
C	  60.8282464425	  46.1764000000	   6.6880500000
C	  58.7211000000	  46.1851000000	   7.6688600000
H	  60.2247064425	  47.9235000000	   5.4638800000
H	  60.3797664425	  48.3233000000	   7.1207000000
H	  60.6450864425	  45.6010000000	   5.8163500000
H	  61.9261664425	  46.1616000000	   6.9541200000
H	  58.3664000000	  46.6415000000	   8.6370300000
H	  58.0999000000	  45.3400000000	   7.3384200000
O	  59.4851864425	  51.2622000000	   7.7025800000
O	  57.9345000000	  49.8700000000	   6.6019000000
C	  58.7225000000	  50.4866000000	   8.6396500000
C	  57.4864000000	  50.0571000000	   7.9242600000
C	  58.7405000000	  51.0323000000	   6.5101400000
H	  59.5169364425	  49.7201000000	   8.8979500000
H	  58.5309000000	  50.9638000000	   9.5678600000
H	  56.9547000000	  49.2574000000	   8.4538900000
H	  56.6905000000	  50.8004000000	   7.8862000000
H	  58.1373000000	  51.9194000000	   6.4151800000
H	  59.3211964425	  50.9210000000	   5.6399900000
N	  55.5252000000	  44.8843000000	   6.7612400000
S	  55.3584000000	  43.8573000000	   5.6039400000
O	  55.1863000000	  42.5135000000	   6.0861900000
O	  54.5460000000	  44.1813000000	   4.4062400000
C	  57.0904000000	  43.9084000000	   4.9493300000
F	  58.0631000000	  43.5514000000	   5.8431600000
F	  57.3483000000	  45.1432000000	   4.6643800000
F	  57.3146000000	  43.1853000000	   3.8998900000
S	  54.9157000000	  46.3006000000	   6.8230000000
O	  53.5724000000	  46.3166000000	   6.3128500000
O	  55.7735000000	  47.4471000000	   6.4707100000
C	  54.5884000000	  46.4592000000	   8.6205400000
F	  54.1391000000	  47.6951000000	   8.8420400000
F	  53.5794000000	  45.6325000000	   9.0570100000
F	  55.7063000000	  46.2222000000	   9.2726100000
N	  60.2655264425	  48.1884000000	   2.8500100000
S	  58.7113000000	  48.2043000000	   2.8498100000
O	  58.1098000000	  47.1435000000	   2.0813600000
O	  58.1302000000	  48.4205000000	   4.1035000000
C	  58.2447000000	  49.8215000000	   1.9988200000
F	  58.4836000000	  50.9176000000	   2.6997400000
F	  56.9624000000	  49.8710000000	   1.6297200000
F	  58.9742000000	  49.9895000000	   0.8913120000
S	  61.2935164425	  47.1540000000	   2.2512900000
O	  60.9049564425	  46.6272000000	   0.9226060000
O	  61.8697864425	  46.3146000000	   3.2319500000
C	  62.6528264425	  48.3283000000	   1.7615600000
F	  62.2597864425	  49.2700000000	   0.8999370000
F	  63.1038064425	  49.0122000000	   2.8556300000
F	  63.6768264425	  47.6761000000	   1.2014000000
