61

Li	  11.1410000000	  30.5093000000	  31.2475000000
O	  10.6599000000	  32.1601000000	  32.2214000000
O	  11.6210000000	  33.9360000000	  32.8270000000
C	  10.8453000000	  31.9821000000	  33.6369000000
C	  11.3246000000	  33.3617000000	  34.0306000000
C	  10.7112000000	  33.5159000000	  31.9222000000
H	   9.8351500000	  31.6746000000	  34.0436000000
H	  11.5230000000	  31.2231000000	  33.9035000000
H	  10.5055000000	  34.0593000000	  34.3675000000
H	  12.1590000000	  33.4522000000	  34.7546000000
H	  11.1876000000	  33.6167000000	  30.9662000000
H	   9.7455100000	  34.0059000000	  31.9598000000
O	  14.8017000000	  30.8989000000	  32.9030000000
O	  12.9067000000	  30.1507000000	  31.7390000000
C	  14.4319000000	  29.6036000000	  33.3646000000
C	  13.3587000000	  29.0364000000	  32.4795000000
C	  14.0075000000	  31.0665000000	  31.8090000000
H	  15.2360000000	  28.9288000000	  33.3524000000
H	  14.2308000000	  29.6137000000	  34.4408000000
H	  13.7560000000	  28.2830000000	  31.8079000000
H	  12.6600000000	  28.5650000000	  33.0789000000
H	  13.5154000000	  32.1080000000	  31.8457000000
H	  14.7408000000	  31.0755000000	  31.0304000000
O	   8.1564300000	  27.7131000000	  31.4820000000
O	  10.1693000000	  28.9378000000	  31.7155000000
C	   9.0930800000	  27.1604000000	  30.5830000000
C	  10.4531000000	  27.8166000000	  30.8377000000
C	   8.9104600000	  28.5723000000	  32.3255000000
H	   9.1134100000	  26.0710000000	  30.6736000000
H	   8.7139500000	  27.3533000000	  29.5312000000
H	  11.1347000000	  27.1281000000	  31.3201000000
H	  11.0759000000	  28.0887000000	  29.9618000000
H	   8.4257500000	  29.5650000000	  32.4882000000
H	   9.1877500000	  28.0199000000	  33.1979000000
O	  11.0527000000	  30.6851000000	  29.0577000000
C	   8.6168400000	  30.5659000000	  28.8510000000
C	  12.8821000000	  29.6011000000	  27.9917000000
C	   9.9220300000	  31.4678000000	  28.8104000000
C	  11.7083000000	  30.4809000000	  27.7524000000
C	   7.2618000000	  31.4533000000	  28.8576000000
C	  13.4957000000	  29.1345000000	  26.6268000000
C	   7.1152200000	  32.3279000000	  27.6223000000
C	  14.9240000000	  28.7377000000	  26.7210000000
H	   8.6621800000	  29.8906000000	  27.9865000000
H	   8.5331000000	  29.9101000000	  29.7103000000
H	  13.6703000000	  30.0626000000	  28.5986000000
H	  12.5413000000	  28.6729000000	  28.3750000000
H	   9.8819500000	  32.4211000000	  29.3924000000
H	   9.8497900000	  31.8020000000	  27.6792000000
H	  11.0812000000	  29.9595000000	  27.0310000000
H	  12.1324000000	  31.4170000000	  27.3417000000
H	   6.4165100000	  30.7533000000	  29.0230000000
H	   7.2260800000	  32.1652000000	  29.6578000000
H	  12.9609000000	  28.3317000000	  26.0981000000
H	  13.3930000000	  29.9998000000	  25.9912000000
H	   7.7862000000	  33.1947000000	  27.6229000000
H	   7.2498300000	  31.8066000000	  26.6747000000
H	   6.1779300000	  32.7815000000	  27.6889000000
H	  15.5752000000	  29.4871000000	  27.2108000000
H	  15.0803000000	  27.8527000000	  27.2818000000
H	  15.3364000000	  28.5716000000	  25.6734000000
