54

Li	  42.4200000000	  16.9744000000	  31.0800000000
O	  41.6061000000	  13.1234000000	  30.3175000000
O	  42.4152000000	  15.2242000000	  30.5579000000
C	  42.9950000000	  13.0370000000	  30.3220000000
C	  43.3699000000	  14.4427000000	  29.8500000000
C	  41.3372000000	  14.4148000000	  30.8006000000
H	  43.4853000000	  12.6020000000	  31.2623000000
H	  43.3729000000	  12.2423000000	  29.6212000000
H	  44.4084000000	  14.7150000000	  30.0732000000
H	  43.1188000000	  14.4747000000	  28.7111000000
H	  40.4098000000	  14.8704000000	  30.4081000000
H	  41.3542000000	  14.2861000000	  31.8972000000
O	  42.4994000000	  18.7380000000	  30.6560000000
C	  41.6517000000	  20.9747000000	  31.3875000000
C	  43.5593000000	  18.0416000000	  28.6044000000
C	  41.5040000000	  19.4433000000	  31.3779000000
C	  42.6260000000	  19.1063000000	  29.2999000000
C	  43.0604000000	  21.4521000000	  31.8400000000
C	  45.0027000000	  17.9677000000	  29.0748000000
C	  43.3543000000	  21.3807000000	  33.3279000000
C	  45.8213000000	  17.0907000000	  28.1810000000
H	  41.5968000000	  21.3665000000	  30.3476000000
H	  40.8365000000	  21.5155000000	  31.8530000000
H	  43.0678000000	  17.0290000000	  28.6948000000
H	  43.6516000000	  18.2235000000	  27.5503000000
H	  40.5744000000	  19.2554000000	  30.8114000000
H	  41.3373000000	  19.1155000000	  32.3938000000
H	  41.6024000000	  19.2495000000	  28.8467000000
H	  43.1534000000	  20.0813000000	  29.1854000000
H	  43.8528000000	  20.9664000000	  31.2984000000
H	  43.2271000000	  22.4591000000	  31.4847000000
H	  45.4287000000	  18.9660000000	  29.2349000000
H	  44.8865000000	  17.5433000000	  30.1037000000
H	  43.0230000000	  20.4666000000	  33.8428000000
H	  44.4449000000	  21.3696000000	  33.4197000000
H	  42.8890000000	  22.2040000000	  33.9164000000
H	  45.1504000000	  16.3949000000	  27.6161000000
H	  46.2445000000	  17.6685000000	  27.3105000000
H	  46.5788000000	  16.5064000000	  28.7120000000
N	  42.6232000000	  15.7146000000	  34.4592000000
S	  41.1487000000	  15.9623000000	  33.9199000000
O	  41.0256000000	  16.7301000000	  32.7001000000
O	  40.1485000000	  15.0032000000	  34.2162000000
C	  40.6268000000	  17.3239000000	  35.0132000000
F	  40.8887000000	  17.2124000000	  36.2860000000
F	  39.3492000000	  17.5450000000	  34.9339000000
F	  41.2194000000	  18.4249000000	  34.6010000000
S	  43.9084000000	  15.9477000000	  33.6307000000
O	  43.7673000000	  16.9932000000	  32.6161000000
O	  44.7414000000	  14.7587000000	  33.3636000000
C	  44.9769000000	  16.7891000000	  34.8820000000
F	  46.2438000000	  16.6829000000	  34.5186000000
F	  44.6452000000	  18.0661000000	  35.0373000000
F	  44.9248000000	  16.2005000000	  36.0819000000
