50

Li	  11.7403000000	   2.2687500000	  35.3532000000
O	  11.5255000000	   4.2319300000	  31.9505000000
O	  11.0178000000	   2.9730500000	  33.6531000000
C	  11.1153000000	   2.9743700000	  31.4367000000
C	  10.2728000000	   2.4047800000	  32.5616000000
C	  11.2370000000	   4.3091600000	  33.2953000000
H	  10.5370000000	   3.0254800000	  30.5057000000
H	  11.9829000000	   2.3029800000	  31.2664000000
H	   9.2183400000	   2.8101400000	  32.5764000000
H	  10.1897000000	   1.2761700000	  32.5274000000
H	  12.0950000000	   4.7158600000	  33.8637000000
H	  10.4937000000	   4.9944900000	  33.4973000000
N	  15.4000000000	   0.5702981764	  34.9524000000
S	  13.9693000000	  -0.0516018236	  35.0710000000
O	  13.8863000000	  -1.0088018236	  36.2153000000
O	  12.8526000000	   0.7370981764	  34.7113000000
C	  14.0985000000	  -1.1818018236	  33.6613000000
F	  15.2329000000	  -1.8412018236	  33.7082000000
F	  14.1255000000	  -0.5568018236	  32.4407000000
F	  13.1033000000	  -2.1381018236	  33.6477000000
S	  15.7639000000	   1.9461500000	  34.2162000000
O	  14.7395000000	   2.5366900000	  33.3605000000
O	  17.1114000000	   2.0884800000	  33.7779000000
C	  15.7851000000	   3.0410100000	  35.6453000000
F	  14.5886000000	   3.2802900000	  36.1445000000
F	  16.5698000000	   2.6998000000	  36.6940000000
F	  16.2738000000	   4.2164000000	  35.2343000000
N	   7.1167200000	   3.1081100000	  34.6295000000
S	   7.1815400000	   1.5675100000	  34.9268000000
O	   6.0098900000	   1.2124800000	  35.7326000000
O	   7.6741700000	   0.7229981764	  33.8964000000
C	   8.5144300000	   1.3418200000	  36.1355000000
F	   9.6967000000	   1.4852900000	  35.6154000000
F	   8.4146000000	   0.1485981764	  36.7418000000
F	   8.4554000000	   2.1415600000	  37.1430000000
S	   5.9038500000	   3.9355900000	  34.1273000000
O	   5.3364400000	   4.7775000000	  35.1323000000
O	   4.9750600000	   3.2067000000	  33.3020000000
C	   6.6919000000	   5.2011300000	  32.9739000000
F	   6.9005400000	   4.6400500000	  31.8158000000
F	   5.8939600000	   6.2501200000	  32.7221000000
F	   7.8674700000	   5.6953200000	  33.4011000000
S	  12.1439000000	   2.4407700000	  37.4308000000
S	  12.0073000000	   4.5488800000	  37.5199000000
S	  10.0367000000	   5.2756100000	  37.7932000000
S	   7.0309900000	   8.8629600000	  35.1410000000
S	   5.2070400000	   9.3223900000	  36.1669000000
S	   3.8855500000	   7.6706300000	  35.9447000000
S	   8.5328800000	   8.1899000000	  36.4390000000
S	   9.3044900000	   6.2667400000	  36.0401000000
