51

Li	  45.3786000000	  56.9456000000	  17.1011000000
O	  43.5570000000	  56.6363000000	  17.3715000000
C	  42.1367000000	  58.6549000000	  17.0441000000
C	  44.4058000000	  55.6134000000	  19.5264000000
C	  42.4235000000	  57.2078000000	  16.7315000000
C	  43.2387000000	  56.2883000000	  18.7247000000
C	  41.1225000000	  59.4251518236	  16.2327000000
C	  44.2392000000	  54.0823000000	  19.5396000000
C	  40.8368000000	  60.7465018236	  16.8920000000
C	  44.2661000000	  53.5324000000	  18.0660000000
H	  41.9368000000	  58.8232000000	  18.1438000000
H	  43.0115000000	  59.2479368236	  16.8442000000
H	  45.2898000000	  56.0563000000	  19.1509000000
H	  44.3453000000	  55.9449000000	  20.5213000000
H	  42.7468000000	  57.2057000000	  15.7274000000
H	  41.5847000000	  56.5599000000	  16.7052000000
H	  42.9879000000	  57.0755000000	  19.3179000000
H	  42.3170000000	  55.6266000000	  18.7216000000
H	  41.3618000000	  59.6441118236	  15.1663000000
H	  40.1602000000	  58.9190000000	  16.2838000000
H	  45.0626000000	  53.5297000000	  20.1551000000
H	  43.2996000000	  53.8385000000	  20.0339000000
H	  40.9088000000	  60.6381518236	  18.0194000000
H	  41.5607000000	  61.5301518236	  16.5972000000
H	  39.8637000000	  61.1886718236	  16.7123000000
H	  45.1987000000	  53.6700000000	  17.6369000000
H	  43.9381000000	  52.4907000000	  17.9761000000
H	  43.5512000000	  54.1081000000	  17.4605000000
N	  48.0324000000	  57.0792000000	  15.0730000000
S	  48.1662000000	  56.2053000000	  16.3236000000
O	  49.2491000000	  56.5890000000	  17.2019000000
O	  46.9396000000	  55.8294000000	  16.9088000000
C	  48.7814000000	  54.5952000000	  15.7149000000
F	  49.8633000000	  54.8149000000	  14.9700000000
F	  47.8952000000	  54.0499000000	  14.9103000000
F	  49.1516000000	  53.7837000000	  16.6917000000
S	  46.7559000000	  57.6638000000	  14.4140000000
O	  46.9808000000	  58.9142000000	  13.7858000000
O	  45.5384000000	  57.5455000000	  15.1564000000
C	  46.7169000000	  56.4794000000	  12.9634000000
F	  47.9460000000	  56.3411000000	  12.5080000000
F	  46.2960000000	  55.3105000000	  13.3769000000
F	  45.9795000000	  56.9807000000	  11.9570000000
S	  46.1404000000	  58.6572000000	  18.1858000000
S	  45.8759000000	  59.5519718236	  20.1181000000
S	  43.9360000000	  60.2318118236	  20.3787000000
S	  44.4577000000	  63.1297118236	  17.0956000000
S	  45.0282000000	  61.3979918236	  16.0534000000
S	  47.0968000000	  61.2620018236	  15.9888000000
S	  42.8632000000	  62.9974518236	  18.5016000000
S	  43.7210000000	  62.3884918236	  20.3292000000
