49

Li	  50.6755000000	   3.6662400000	  21.0604000000
O	  51.0517000000	   6.1016700000	  18.5349000000
O	  50.9628000000	   5.4652800000	  20.6721000000
C	  52.4008000000	   6.2289300000	  19.0746000000
C	  52.1357000000	   6.2848600000	  20.5719000000
C	  50.2568000000	   6.0387200000	  19.6323000000
H	  53.1387000000	   5.4050700000	  18.8992000000
H	  52.8985000000	   7.1408100000	  18.6924000000
H	  52.9488000000	   5.8443900000	  21.0763000000
H	  52.0473000000	   7.3255800000	  20.8099000000
H	  49.7123000000	   6.9720900000	  19.8335000000
H	  49.4265000000	   5.3993900000	  19.3119000000
O	  53.6133000000	   2.4648800000	  23.6126000000
O	  52.0885000000	   2.9263900000	  21.9320000000
C	  53.2063000000	   1.2452900000	  23.0005000000
C	  52.7520000000	   1.6628300000	  21.6309000000
C	  52.9781000000	   3.4851800000	  22.8437000000
H	  53.9533000000	   0.4329981764	  23.0768000000
H	  52.3471000000	   0.8346981764	  23.5245000000
H	  53.6445000000	   1.8661300000	  20.9655000000
H	  52.1354000000	   0.9814890000	  21.0418000000
H	  52.3559000000	   4.1310400000	  23.5236000000
H	  53.8045000000	   4.1042900000	  22.4038000000
O	  49.0258000000	   3.5865700000	  21.8276000000
O	  46.9988000000	   2.9471900000	  22.1985000000
C	  49.1996000000	   2.3257700000	  22.3508000000
C	  47.8007000000	   1.7346800000	  22.4924000000
C	  47.8683000000	   4.0493900000	  22.3098000000
H	  49.7539000000	   1.7160300000	  21.6789000000
H	  49.7870000000	   2.5436200000	  23.2471000000
H	  47.5257000000	   1.0243200000	  21.7563000000
H	  47.5832000000	   1.4895600000	  23.5147000000
H	  47.9972000000	   4.2851000000	  23.3964000000
H	  47.3923000000	   4.9223600000	  21.8017000000
N	  48.5420000000	   2.3803900000	  17.3901000000
S	  47.1831000000	   3.0200300000	  17.8665000000
O	  47.2344000000	   3.8097300000	  19.0525000000
O	  46.3860000000	   3.5118600000	  16.7882000000
C	  46.1858000000	   1.5261400000	  18.3155000000
F	  46.7951000000	   0.7054981764	  19.1737000000
F	  45.8657000000	   0.8479981764	  17.2312000000
F	  45.0431000000	   1.9332000000	  18.8949000000
S	  49.9667000000	   2.7306800000	  17.8621000000
O	  50.0282000000	   2.9089300000	  19.2646000000
O	  50.7882000000	   3.7000100000	  17.1209000000
C	  50.9253000000	   1.1354500000	  17.6217000000
F	  52.1036000000	   1.3204300000	  18.2119000000
F	  50.3404000000	   0.1146981764	  18.2765000000
F	  51.0902000000	   0.8108981764	  16.3295000000
