57

Li	  41.9407000000	  31.6103000000	  56.1081000000
O	  42.6649000000	  32.0331000000	  54.4953000000
O	  44.0683000000	  31.4468000000	  52.6728000000
C	  41.8529000000	  31.6908000000	  53.4414000000
C	  42.7891000000	  30.8189000000	  52.5580000000
C	  44.0122000000	  32.0323000000	  53.9501000000
H	  40.8962000000	  31.1356000000	  53.6669000000
H	  41.5232000000	  32.5425000000	  52.8718000000
H	  42.8755000000	  29.7560000000	  52.9087000000
H	  42.4613000000	  30.7553000000	  51.4742000000
H	  44.4675000000	  33.0249000000	  53.8362000000
H	  44.5491000000	  31.2829000000	  54.5776000000
N	  39.9052000000	  29.7283000000	  58.0015000000
S	  38.5353000000	  29.8825000000	  58.7191000000
O	  38.3820000000	  31.1692000000	  59.3422064425
O	  37.4310000000	  29.2957000000	  58.0232000000
C	  38.6447000000	  28.7565000000	  60.1201964425
F	  39.1967000000	  27.6157000000	  59.7891864425
F	  37.5127000000	  28.4627000000	  60.6040264425
F	  39.3858000000	  29.2969000000	  61.0525664425
S	  40.1768000000	  29.2690000000	  56.5574000000
O	  41.4629000000	  29.7849000000	  56.0301000000
O	  39.0430000000	  29.4230000000	  55.6570000000
C	  40.5691000000	  27.4562000000	  56.6686000000
F	  41.1477000000	  27.1039000000	  57.7914000000
F	  39.5403000000	  26.7045000000	  56.7430000000
F	  41.3043000000	  27.0498000000	  55.6690000000
N	  42.8907000000	  30.6714000000	  59.9770664425
S	  42.1824000000	  31.9250000000	  59.3599064425
O	  42.0347000000	  31.9863000000	  57.9109000000
O	  40.9929000000	  32.2375000000	  60.1685864425
C	  43.3498000000	  33.2687000000	  59.7956264425
F	  43.0011000000	  34.4522000000	  59.2990164425
F	  44.5713000000	  33.0678000000	  59.2889464425
F	  43.4496000000	  33.4791000000	  61.1119964425
S	  44.0002000000	  29.7462000000	  59.3021364425
O	  45.3448000000	  29.9343000000	  59.6958864425
O	  43.8401000000	  29.5276000000	  57.8921000000
C	  43.5482000000	  28.1984000000	  60.1164964425
F	  44.2402000000	  27.1305000000	  59.6870164425
F	  43.8445000000	  28.2683000000	  61.3791964425
F	  42.3077000000	  27.8777000000	  59.9834264425
N	  38.0038000000	  33.8849000000	  56.1294000000
S	  36.7910000000	  32.9369000000	  56.4372000000
O	  36.9872000000	  31.5456000000	  56.1080000000
O	  36.0881000000	  33.2703000000	  57.6536000000
C	  35.5913000000	  33.4600000000	  55.1879000000
F	  36.1486000000	  33.4515000000	  54.0048000000
F	  35.1790000000	  34.7100000000	  55.3180000000
F	  34.4879000000	  32.7176000000	  55.1354000000
S	  39.3639000000	  33.6449000000	  56.7620000000
O	  40.1484000000	  32.5878000000	  56.1620000000
O	  39.5011000000	  33.8214000000	  58.1793000000
C	  40.3324000000	  35.0655000000	  56.1032000000
F	  40.0596000000	  35.2375000000	  54.8228000000
F	  40.0579000000	  36.2203000000	  56.7150000000
F	  41.6720000000	  34.8369000000	  56.2572000000
