53

Li	  18.5388000000	  20.8571000000	  42.3477000000
O	  19.7650000000	  22.7523000000	  39.0847000000
O	  18.7157000000	  22.1383000000	  40.9852000000
C	  20.5663000000	  23.2068000000	  40.1272000000
C	  19.5749000000	  23.2292000000	  41.2930000000
C	  18.5725000000	  22.2680000000	  39.6102000000
H	  21.3091000000	  22.4104000000	  40.2387000000
H	  20.9943000000	  24.2351000000	  39.9000000000
H	  20.1147000000	  23.1106000000	  42.1830000000
H	  18.9657000000	  24.2025000000	  41.3996000000
H	  17.7887000000	  23.0091000000	  39.5390000000
H	  18.3133000000	  21.1885000000	  39.3212000000
O	  17.6223000000	  22.2869000000	  43.8131000000
O	  16.4028000000	  22.9125000000	  45.5777000000
C	  16.2744000000	  22.1186000000	  43.4919000000
C	  15.5529000000	  23.0754000000	  44.4917000000
C	  17.6397000000	  22.9862000000	  44.9934000000
H	  16.0925000000	  22.1997000000	  42.4449000000
H	  15.8297000000	  21.1301000000	  43.6128000000
H	  15.3360000000	  24.0634000000	  44.1031000000
H	  14.5672000000	  22.7483000000	  44.8831000000
H	  18.3920000000	  22.5285000000	  45.6381000000
H	  17.8680000000	  24.0020000000	  44.7490000000
N	  21.7224000000	  19.2142000000	  40.8397000000
S	  21.6716000000	  20.0207000000	  42.1656000000
O	  22.5537000000	  21.1467000000	  42.1754000000
O	  20.3037000000	  20.2629000000	  42.5532000000
C	  22.3755000000	  18.8660000000	  43.3712000000
F	  22.6011000000	  19.4090000000	  44.5342000000
F	  23.5240000000	  18.3723000000	  42.9280000000
F	  21.5769000000	  17.8803000000	  43.6644000000
S	  20.6286000000	  19.0479000000	  39.8010000000
O	  20.8402000000	  19.8711000000	  38.6226000000
O	  19.3212000000	  18.7929000000	  40.3433000000
C	  21.0558000000	  17.3775000000	  39.0188000000
F	  22.2272000000	  17.3478000000	  38.4317000000
F	  21.0204000000	  16.3331000000	  39.8390000000
F	  20.1009000000	  17.0361000000	  38.1504000000
N	  16.3379000000	  17.9076000000	  42.2714000000
S	  16.1042000000	  18.8955000000	  41.0267000000
O	  16.8833000000	  20.0810000000	  41.1323000000
O	  16.2413000000	  18.2685000000	  39.6991000000
C	  14.2916000000	  19.4659000000	  41.1983000000
F	  13.6975000000	  18.7070000000	  42.0229000000
F	  13.5894000000	  19.4097000000	  40.0794000000
F	  14.1839000000	  20.6613000000	  41.7806000000
S	  16.8645000000	  18.2914000000	  43.6700000000
O	  15.8806000000	  18.1079000000	  44.7327000000
O	  17.6581000000	  19.4804000000	  43.6727000000
C	  18.1673000000	  17.0966000000	  43.8439000000
F	  18.7156000000	  17.2702000000	  45.0777000000
F	  17.7776000000	  15.7870000000	  43.7380000000
F	  19.0495000000	  17.3023000000	  42.8798000000
