46

Li	  52.8682000000	   9.5550400000	  30.1108000000
O	  53.6934000000	   6.0151400000	  31.0807000000
O	  52.4835000000	   7.7595100000	  30.2495000000
C	  53.7545000000	   5.9831200000	  29.6662000000
C	  52.4487000000	   6.7450900000	  29.3031000000
C	  52.8331000000	   7.0721700000	  31.3825000000
H	  54.6377000000	   6.5388700000	  29.2659000000
H	  53.7430000000	   4.9183200000	  29.2978000000
H	  52.3634000000	   7.1378800000	  28.2506000000
H	  51.6276000000	   6.0484200000	  29.3490000000
H	  51.9587000000	   6.5676600000	  31.7732000000
H	  53.1435000000	   7.7245400000	  32.2130000000
O	  49.3789000000	  10.6318000000	  30.8285000000
O	  51.2062000000	  10.0794000000	  29.6261000000
C	  49.7519000000	  11.8626000000	  30.2029000000
C	  50.9952000000	  11.4408000000	  29.3222000000
C	  49.9830000000	   9.5787100000	  30.0986000000
H	  49.1205000000	  12.4363000000	  29.5554000000
H	  50.0551000000	  12.5388000000	  30.9421000000
H	  50.7770000000	  11.4720000000	  28.2720000000
H	  51.8826000000	  11.9464000000	  29.6408000000
H	  50.0982000000	   8.6647100000	  30.7506000000
H	  49.3213000000	   9.3198200000	  29.2217000000
N	  51.9885000000	  11.4906000000	  34.4218000000
S	  52.7694000000	  11.5308000000	  33.0386000000
O	  52.5355000000	  10.3789000000	  32.1959000000
O	  52.8181000000	  12.8843000000	  32.4805000000
C	  54.4763000000	  11.1665000000	  33.5902000000
F	  55.2635000000	  11.1271000000	  32.5291000000
F	  54.5205000000	  10.0434000000	  34.3018000000
F	  54.8854000000	  12.1668000000	  34.3318000000
S	  50.6091000000	  10.7466000000	  34.7639000000
O	  49.6910000000	  10.6661000000	  33.6909000000
O	  50.1385000000	  11.2392000000	  36.0632000000
C	  51.2417000000	   9.0033600000	  35.1360000000
F	  52.2088000000	   9.0330200000	  36.0322000000
F	  50.3384000000	   8.1810600000	  35.5537000000
F	  51.9215000000	   8.4921700000	  34.0612000000
S	  45.8311000000	  10.4564000000	  22.4871000000
S	  47.4184000000	   9.3588500000	  23.3334000000
S	  49.0772000000	  10.4245000000	  24.1614000000
S	  52.9341000000	   9.7271000000	  26.5995000000
S	  54.2026000000	   9.1391400000	  28.2577000000
S	  54.5910000000	  10.7508000000	  29.5528000000
S	  51.0734000000	   8.6729800000	  26.3525000000
S	  49.4733000000	  10.0670000000	  26.1448000000
