50

Li	  49.4694000000	   2.2641500000	  43.7411000000
O	  53.2476000000	   3.1568900000	  42.3493000000
O	  51.0487000000	   2.6931700000	  42.8490000000
C	  52.5359000000	   3.2230700000	  41.1811000000
C	  51.0491000000	   3.4352200000	  41.6640000000
C	  52.3044000000	   2.9731200000	  43.3355000000
H	  52.9383000000	   4.0163500000	  40.5081000000
H	  52.6683000000	   2.2787700000	  40.6319000000
H	  50.8476000000	   4.4934300000	  41.7648000000
H	  50.3317000000	   3.1311600000	  40.8769000000
H	  52.6729000000	   2.1196500000	  43.9164000000
H	  52.3127000000	   3.6758400000	  44.1752000000
N	  48.7060000000	   0.2131981764	  39.9728000000
S	  48.9293000000	   0.0062981764	  41.4942000000
O	  50.0876000000	  -0.7769018236	  41.8518000000
O	  48.6454000000	   1.1745700000	  42.3167000000
C	  47.6388000000	  -1.2095018236	  41.8947000000
F	  46.4325000000	  -0.8032018236	  41.6336000000
F	  47.5741000000	  -1.6754018236	  43.0989000000
F	  47.8023000000	  -2.2674018236	  41.1148000000
S	  49.6481000000	  -0.1545018236	  38.8021000000
O	  49.1302000000	  -1.3938018236	  38.1722000000
O	  51.0731000000	  -0.0416018236	  39.1068000000
C	  49.3424000000	   1.1958100000	  37.6415000000
F	  50.1370000000	   2.1372000000	  38.0323000000
F	  49.6403000000	   0.8854110000	  36.3812000000
F	  48.1448000000	   1.7092500000	  37.6018000000
N	  45.6888000000	   4.5446100000	  43.2527000000
S	  45.1300000000	   5.3628800000	  44.4773000000
O	  45.9962000000	   6.3875200000	  44.9873000000
O	  43.7492000000	   5.6373100000	  44.2717000000
C	  45.1585000000	   3.9587800000	  45.7577000000
F	  46.3963000000	   3.6143800000	  45.9065000000
F	  44.5339000000	   2.8557000000	  45.3305000000
F	  44.6671000000	   4.1941700000	  46.9723000000
S	  47.1001000000	   4.5937700000	  42.5915000000
O	  48.1258000000	   3.8127900000	  43.2600000000
O	  47.3987000000	   5.9319600000	  42.2898000000
C	  46.7540000000	   3.8008600000	  40.9898000000
F	  46.0590000000	   4.4818100000	  40.1489000000
F	  47.8598000000	   3.4973000000	  40.3640000000
F	  46.1042000000	   2.6824900000	  41.1547000000
S	  55.0376000000	   8.4143500000	  45.3357000000
S	  54.7210000000	   6.3229600000	  45.2044000000
S	  54.6533000000	   5.3071200000	  47.1265000000
S	  50.4879000000	   3.8505400000	  45.9391000000
S	  49.2155000000	   2.1095300000	  45.9512000000
S	  50.0470000000	   0.4801981764	  44.9047000000
S	  51.7063000000	   3.6728300000	  47.6607000000
S	  53.7537000000	   3.4057900000	  47.0866000000
