24

Li	   6.8718800000	   3.3287700000	  47.2147000000
N	   5.9103600000	   2.1294100000	  51.5769000000
S	   6.7866200000	   1.7492400000	  50.3236000000
O	   6.7682000000	   0.3306981764	  50.0355000000
O	   6.7470500000	   2.6989500000	  49.2131000000
C	   8.4772600000	   2.0492800000	  50.9844000000
F	   9.0470500000	   0.9315270000	  51.3282000000
F	   8.5621900000	   2.9731000000	  52.0314000000
F	   9.2507300000	   2.6442000000	  50.0595000000
S	   4.4833200000	   1.5791300000	  51.9821000000
O	   4.2199900000	   1.5578600000	  53.3847000000
O	   4.0182800000	   0.5124981764	  51.1393000000
C	   3.5179200000	   3.1431600000	  51.6446000000
F	   3.8624900000	   4.1340900000	  52.4196000000
F	   3.7209500000	   3.5876800000	  50.4020000000
F	   2.2693600000	   2.8943600000	  51.8137000000
S	   5.0724400000	   4.5589400000	  46.7379000000
S	   6.7115600000	   5.8238400000	  47.0089000000
S	   8.4645300000	   5.2682500000	  45.9735000000
S	   9.2112500000	   0.9020590000	  47.1847000000
S	   7.6202400000	   0.2913981764	  46.0403000000
S	   5.7165600000	   1.2802600000	  46.4416000000
S	  10.2637000000	   2.3714800000	  46.2203000000
S	   9.9464500000	   4.2532700000	  47.0682000000
