28

Li	  53.3470000000	  57.2788000000	   8.8970200000
O	  52.0307000000	  53.5830000000	   8.2436800000
O	  52.6035000000	  55.7195000000	   8.5784300000
C	  50.7546000000	  54.1847000000	   8.4370200000
C	  51.1868000000	  55.6483000000	   8.8321200000
C	  52.9191000000	  54.6115000000	   7.8607300000
H	  50.2500000000	  54.0093000000	   7.5280100000
H	  50.1465000000	  53.7586000000	   9.3001200000
H	  50.6446000000	  56.3162000000	   8.1155800000
H	  50.9423000000	  55.7556000000	   9.8798300000
H	  54.0056000000	  54.2702000000	   8.0027700000
H	  52.8730000000	  54.7710000000	   6.7813700000
S	  52.0023000000	  58.6925000000	   9.8906600000
S	  51.8834000000	  58.7740000000	   7.7528800000
S	  51.5131000000	  60.7875918236	   7.1090200000
S	  52.3168000000	  64.6187818236	   4.1923300000
S	  53.5000000000	  64.8769218236	   2.4889700000
S	  53.5285000000	  66.8060818236	   1.6546000000
S	  53.2461000000	  63.5679618236	   5.8041900000
S	  52.7787000000	  61.4658518236	   5.6571200000
S	  55.0342000000	  58.5659000000	  18.4082000000
S	  55.0887000000	  57.9736000000	  16.3601000000
S	  56.0487000000	  56.1292000000	  16.0752000000
S	  53.9315000000	  54.7816000000	  12.0489000000
S	  54.5343000000	  56.6567000000	  11.2674000000
S	  55.3562000000	  56.4626000000	   9.4182100000
S	  55.3723000000	  54.1242000000	  13.2875000000
S	  54.8086000000	  54.5929000000	  15.2967000000
