28

Li	   9.4640300000	  12.8850000000	  30.6208000000
O	  10.1554000000	  11.3269000000	  31.5413000000
O	   9.8806000000	   9.3328100000	  30.6900000000
C	  11.4298000000	  10.9383000000	  31.0380000000
C	  11.1862000000	   9.6614800000	  30.3056000000
C	   9.4834700000	  10.1635000000	  31.7668000000
H	  11.8751000000	  11.8251000000	  30.4982000000
H	  12.1124000000	  10.8040000000	  31.8134000000
H	  11.1016000000	   9.9137500000	  29.2694000000
H	  11.8934000000	   8.8598400000	  30.4609000000
H	   9.7719600000	   9.8681600000	  32.7785000000
H	   8.4626500000	  10.2537000000	  31.7785000000
S	   8.0084800000	  13.8898000000	  31.7209000000
S	   9.3377200000	  15.3540000000	  30.9094000000
S	  11.3576000000	  14.7430000000	  30.8424000000
S	  15.0342000000	  17.6067000000	  33.1500000000
S	  17.1411000000	  17.4160000000	  33.5918000000
S	  17.6144000000	  17.0704000000	  35.5598000000
S	  14.2555000000	  16.4565000000	  31.6240000000
S	  12.7393000000	  15.2577000000	  32.3183000000
S	   7.0864100000	   9.3626500000	  28.9030000000
S	   7.8279800000	   7.6101100000	  27.9188000000
S	   9.8616000000	   7.3494000000	  28.0285000000
S	  11.4896000000	  11.4942000000	  25.9764000000
S	  11.1397000000	  12.7150000000	  27.7687000000
S	   9.2363800000	  12.3275000000	  28.7291000000
S	  12.1373000000	   9.5593100000	  26.5125000000
S	  10.6473000000	   8.0371900000	  26.1644000000
