35

Li	   2.5245900000	  48.3766000000	  54.6850000000
O	   0.8579835575	  47.7704000000	  54.1817000000
O	  -0.8956164425	  47.1811000000	  52.8179000000
C	  -0.2649164425	  47.6894000000	  54.9714000000
C	  -1.1982164425	  46.7799000000	  54.1264000000
C	   0.4723835575	  47.5849000000	  52.8830000000
H	  -0.0905164425	  47.3270000000	  55.9889000000
H	  -0.7177164425	  48.7442000000	  55.0731000000
H	  -0.8658164425	  45.7643000000	  54.2018000000
H	  -2.2443164425	  46.8023000000	  54.4006000000
H	   0.5829835575	  48.5354000000	  52.3108000000
H	   1.0453200000	  46.8069000000	  52.3164000000
N	   3.1939700000	  51.9791000000	  52.9164000000
S	   3.4502600000	  50.5819000000	  52.3742000000
O	   4.7894500000	  50.3876000000	  51.8493000000
O	   2.7996600000	  49.4981000000	  53.0855000000
C	   2.5689600000	  50.5866000000	  50.8208000000
F	   2.9518200000	  51.4942000000	  50.0218000000
F	   1.2752700000	  50.8522000000	  51.0549000000
F	   2.6726000000	  49.3744000000	  50.2440000000
S	   2.7293600000	  52.3747000000	  54.3761000000
O	   2.4023100000	  51.2285000000	  55.1710000000
O	   1.7484800000	  53.4721000000	  54.4036000000
C	   4.3088800000	  53.1294000000	  55.0791000000
F	   5.2194600000	  52.2184000000	  55.4520000000
F	   4.9250400000	  53.9591000000	  54.2678000000
F	   4.1010000000	  53.7954000000	  56.1846000000
S	   3.5261500000	  48.6734000000	  56.4467000000
S	   4.5856700000	  47.0388000000	  55.6722000000
S	   5.0610600000	  47.1798000000	  53.6690000000
S	   7.0042800000	  44.5458000000	  50.4714000000
S	   9.1017800000	  45.0366000000	  50.7073000000
S	  10.3554000000	  43.9972000000	  49.4737000000
S	   5.8446300000	  44.1655000000	  52.1936000000
S	   4.2941500000	  45.4722000000	  52.5930000000
