61

Li	  37.6759000000	  32.5773000000	   1.2038100000
N	  35.9701000000	  28.8366000000	   1.1201900000
S	  36.3806000000	  29.8935000000	  -0.0104164425
O	  36.6581000000	  31.1537000000	   0.5578835575
O	  37.2647000000	  29.4332000000	  -1.0104164425
C	  34.7256000000	  30.2192000000	  -0.7809164425
F	  34.8988000000	  30.9038000000	  -1.9236164425
F	  33.9321000000	  30.8959000000	  -0.0194164425
F	  34.0769000000	  29.0503000000	  -1.0758164425
S	  36.5667000000	  27.4462000000	   1.5357200000
O	  37.0155000000	  27.3105000000	   2.8958400000
O	  37.5469000000	  26.9090000000	   0.6367835575
C	  35.0297000000	  26.3973000000	   1.4774500000
F	  35.1290000000	  25.3091000000	   2.2398400000
F	  33.9044000000	  26.9792000000	   1.8964000000
F	  34.7004000000	  25.9025000000	   0.2778835575
N	  40.3895000000	  30.7441000000	   1.3611400000
S	  40.1765000000	  31.5994000000	   2.6479600000
O	  38.9581000000	  32.4304000000	   2.5369700000
O	  40.4447000000	  30.9434000000	   3.8838800000
C	  41.4976000000	  32.8788000000	   2.5156700000
F	  41.4448000000	  33.6180000000	   3.6553400000
F	  41.4014000000	  33.5708000000	   1.4452500000
F	  42.7106000000	  32.3333000000	   2.4662300000
S	  40.1385000000	  29.1855000000	   1.4392300000
O	  39.8117000000	  28.7107000000	   0.1716835575
O	  39.3915000000	  28.7107000000	   2.5312700000
C	  41.8387000000	  28.5914000000	   1.6654500000
F	  42.7012000000	  29.0986000000	   0.7902835575
F	  42.3419000000	  28.9542000000	   2.8052400000
F	  41.9863000000	  27.3232000000	   1.5318000000
N	  38.3695000000	  33.2144000000	  -2.7748164425
S	  37.1564000000	  34.1482000000	  -2.5177164425
O	  36.1873000000	  33.6831000000	  -1.5864164425
O	  37.4870000000	  35.5312000000	  -2.4785164425
C	  36.3297000000	  34.1186000000	  -4.1473164425
F	  37.0066000000	  34.6897000000	  -5.1747164425
F	  35.1278000000	  34.7554000000	  -4.1612164425
F	  35.9817000000	  32.9037000000	  -4.5925164425
S	  39.1571000000	  32.3895000000	  -1.7537164425
O	  39.2568000000	  30.9888000000	  -2.0101164425
O	  38.9323000000	  32.7927000000	  -0.3630164425
C	  40.8657000000	  32.9763000000	  -2.0576164425
F	  41.0529000000	  34.2791000000	  -1.8364164425
F	  41.7374000000	  32.3424000000	  -1.2906164425
F	  41.1285000000	  32.7548000000	  -3.3301164425
N	  37.9122000000	  36.8958000000	   2.9269600000
S	  37.2961000000	  38.0296000000	   3.7225400000
O	  36.4141000000	  38.8739000000	   2.9027200000
O	  36.8981000000	  37.6257000000	   5.0158300000
C	  38.8629000000	  39.0433000000	   4.1048000000
F	  38.8288000000	  40.2977000000	   3.7168200000
F	  39.9326000000	  38.5496000000	   3.4531800000
F	  39.2100000000	  39.0097000000	   5.4197800000
S	  37.4038000000	  36.0574000000	   1.6640400000
O	  36.3971000000	  36.7697000000	   0.8862290000
O	  37.2272000000	  34.6061000000	   1.6980300000
C	  38.9228000000	  36.2452000000	   0.6811835575
F	  39.0452000000	  37.4173000000	   0.2069835575
F	  40.0044000000	  36.0601000000	   1.4583500000
F	  39.0723000000	  35.3847000000	  -0.2923164425
