57

Li	  17.1126000000	  42.7114000000	  46.8714000000
O	  14.3812000000	  46.2414000000	  47.4707000000
O	  15.8446000000	  44.5449000000	  46.9924000000
C	  15.5481000000	  46.8783000000	  47.1238000000
C	  16.5615000000	  45.7705000000	  47.1881000000
C	  14.5177000000	  44.9900000000	  46.8053000000
H	  15.4927000000	  47.0906000000	  46.0833000000
H	  15.8646000000	  47.7004000000	  47.7265000000
H	  17.3415000000	  45.9464000000	  46.4200000000
H	  17.1178000000	  45.7392000000	  48.1394000000
H	  13.8380000000	  44.3122000000	  47.3784000000
H	  14.1648000000	  45.0673000000	  45.8161000000
O	  20.3443000000	  43.6832000000	  48.9450000000
O	  18.2813000000	  43.1691000000	  48.1751000000
C	  19.3717000000	  43.9873000000	  49.8877000000
C	  18.2943000000	  42.9496000000	  49.5425000000
C	  19.6085000000	  43.4096000000	  47.8218000000
H	  19.6441000000	  43.9143000000	  50.9129000000
H	  19.0283000000	  44.9978000000	  49.7136000000
H	  18.6708000000	  41.9332000000	  49.8300000000
H	  17.3875000000	  43.2154000000	  49.9715000000
H	  19.6696000000	  44.2410000000	  47.1285000000
H	  20.0025000000	  42.4687000000	  47.4143000000
O	  19.2127000000	  39.7069000000	  44.8729000000
O	  17.5586000000	  40.5055000000	  46.1983000000
C	  19.4695000000	  39.1890000000	  46.1117000000
C	  18.2903000000	  39.6931000000	  47.0501000000
C	  17.8710000000	  40.0744000000	  44.8871000000
H	  19.3799000000	  38.1154000000	  46.0995000000
H	  20.4398000000	  39.5041000000	  46.5737000000
H	  17.7260000000	  38.8886000000	  47.4425000000
H	  18.6523000000	  40.3151000000	  47.8843000000
H	  17.5016000000	  40.7868000000	  44.1638000000
H	  17.1485000000	  39.2787000000	  44.6528000000
N	  14.6340000000	  42.3758000000	  50.5344000000
S	  14.0295000000	  43.7295000000	  50.9580000000
O	  15.0254000000	  44.3549000000	  51.8589000000
O	  13.4707000000	  44.5606000000	  49.9070000000
C	  12.6708000000	  43.1235000000	  52.0353000000
F	  13.1019000000	  42.3849000000	  53.0205000000
F	  11.8274000000	  42.2794000000	  51.4189000000
F	  12.0397000000	  44.0803000000	  52.5532000000
S	  14.5590000000	  41.7000000000	  49.1016000000
O	  15.7265000000	  41.8374000000	  48.2342000000
O	  13.2287000000	  41.7948000000	  48.4600000000
C	  14.5064000000	  39.9330000000	  49.5705000000
F	  15.6719000000	  39.5938000000	  50.1744000000
F	  13.4614000000	  39.5916000000	  50.3848000000
F	  14.3995000000	  39.1054000000	  48.6034000000
S	  19.3762000000	  51.3205000000	  41.2132000000
S	  18.6436000000	  51.4487000000	  43.1847000000
S	  16.5784000000	  51.2929000000	  43.2660000000
S	  17.1640000000	  46.4792000000	  43.6758000000
S	  16.4990000000	  44.5031000000	  43.9365000000
S	  18.0074000000	  43.3658000000	  44.8363000000
S	  15.6523000000	  47.9122000000	  43.3428000000
S	  16.0698000000	  49.6112000000	  44.4827000000
