34

Li	  53.8746000000	  57.7133000000	  56.3923000000
O	  54.3791000000	  57.9258000000	  54.5884000000
O	  54.9089000000	  57.7702000000	  52.4224000000
C	  55.3256000000	  58.9725000000	  54.2605000000
C	  55.2878000000	  59.0598000000	  52.7634000000
C	  53.9796000000	  57.3807000000	  53.3648000000
H	  55.1517000000	  59.9345318236	  54.6844000000
H	  56.3374000000	  58.6867000000	  54.5790000000
H	  54.4600000000	  59.7285318236	  52.3275000000
H	  56.1757000000	  59.2960818236	  52.1439000000
H	  53.7666000000	  56.3464000000	  53.3872000000
H	  53.1151000000	  57.8083000000	  53.0194000000
O	  54.9921000000	  60.6415718236	  58.7755000000
O	  54.0785000000	  59.4520218236	  57.0592000000
C	  53.7011000000	  60.3154018236	  59.2047064425
C	  53.0937000000	  59.4121418236	  58.1188000000
C	  54.8821000000	  60.5776218236	  57.3787000000
H	  53.8209000000	  59.8874118236	  60.2080564425
H	  53.0547000000	  61.1875218236	  59.3596864425
H	  53.0525000000	  58.3873000000	  58.5694000000
H	  52.1213000000	  59.8194718236	  57.8200000000
H	  54.4423000000	  61.4960018236	  57.0643000000
H	  55.8708000000	  60.6123018236	  56.9099000000
O	  55.3527000000	  56.3250000000	  57.1137000000
O	  54.9713000000	  54.3853000000	  57.9796000000
C	  55.9398000000	  55.4850000000	  56.1537000000
C	  55.4716000000	  54.0913000000	  56.6149000000
C	  55.3764000000	  55.6526000000	  58.2674000000
H	  55.8986000000	  55.6533000000	  55.0917000000
H	  57.0522000000	  55.6237000000	  56.2564000000
H	  54.6868000000	  53.6894000000	  55.9859000000
H	  56.3141000000	  53.4605000000	  56.5917000000
H	  56.3165000000	  55.5565000000	  58.8010000000
H	  54.7970000000	  56.1234000000	  59.0142000000
