42

Li	  23.0181000000	  23.9129000000	   4.6773400000
O	  20.0419000000	  23.6155000000	   7.8167800000
O	  21.5787000000	  23.3570000000	   6.2351200000
C	  19.9968000000	  22.2526000000	   7.3378000000
C	  20.6372000000	  22.3666000000	   6.0143500000
C	  20.8458000000	  24.3027000000	   6.9564100000
H	  20.5671000000	  21.6764000000	   8.0569000000
H	  19.0102000000	  21.8176000000	   7.3124200000
H	  20.8886000000	  21.3858000000	   5.5918700000
H	  19.8671000000	  22.8255000000	   5.3624900000
H	  20.2170000000	  24.9539000000	   6.2711200000
H	  21.4937000000	  24.8442000000	   7.6345200000
O	  23.8780000000	  25.9459000000	   5.0962400000
O	  24.8320000000	  27.9728000000	   4.7152500000
C	  23.0184000000	  26.9646000000	   5.4615600000
C	  23.9198000000	  28.1403000000	   5.7456000000
C	  25.0003000000	  26.5954000000	   4.5830600000
H	  22.2686000000	  27.0915000000	   4.6963000000
H	  22.4604000000	  26.7501000000	   6.3701900000
H	  23.3472000000	  29.0091000000	   5.7548700000
H	  24.3903000000	  28.0585000000	   6.6833500000
H	  25.9695000000	  26.2193000000	   5.0417500000
H	  25.1297000000	  26.4823000000	   3.5165300000
O	  24.5739000000	  23.2723000000	   5.3272100000
O	  25.8983000000	  22.8570000000	   7.0008100000
C	  25.5857000000	  22.3991000000	   4.8228900000
C	  26.6584000000	  22.5222000000	   5.8810200000
C	  24.6110000000	  23.1357000000	   6.6402900000
H	  25.2846000000	  21.3534000000	   4.8188900000
H	  25.9349000000	  22.7641000000	   3.8423100000
H	  27.1914000000	  21.5653000000	   6.0356200000
H	  27.2871000000	  23.2813000000	   5.5184100000
H	  24.3130000000	  24.1068000000	   7.2480300000
H	  23.9615000000	  22.3476000000	   6.9368300000
S	  19.8253000000	  15.7154000000	   3.7555200000
S	  19.7231000000	  17.2040000000	   2.2278200000
S	  21.5055000000	  17.3719000000	   1.0030300000
S	  22.8034000000	  21.5814000000	   3.0245400000
S	  23.2550000000	  23.5552000000	   2.4099600000
S	  21.7145000000	  24.6814000000	   3.1508100000
S	  23.5452000000	  20.1847000000	   1.6699600000
S	  21.8574000000	  19.3627000000	   0.5682835575
