39

Li	   7.7015800000	  50.6238000000	  52.0358000000
O	  10.5106000000	  52.9663000000	  54.5404000000
O	   9.0937600000	  51.3674000000	  53.7783000000
C	  10.6629000000	  51.8112000000	  55.3510000000
C	  10.1162000000	  50.7356000000	  54.4815000000
C	   9.2998700000	  52.6920000000	  53.9212000000
H	  11.7863000000	  51.7067000000	  55.5063000000
H	  10.1490000000	  51.9006000000	  56.3171000000
H	  10.8130000000	  50.3312000000	  53.7135000000
H	   9.7032200000	  49.8455000000	  55.0153000000
H	   8.4501800000	  53.0612000000	  54.5321000000
H	   9.1799100000	  53.2108000000	  52.9634000000
O	   7.3486100000	  48.8482000000	  52.5997000000
O	   6.4491500000	  47.3255000000	  51.2728000000
C	   8.3545700000	  47.8220000000	  52.3825000000
C	   7.8434700000	  47.3196000000	  51.0752000000
C	   6.1407500000	  48.2878000000	  52.2717000000
H	   9.3955300000	  48.1809000000	  52.4123000000
H	   8.4037500000	  47.1179000000	  53.1537000000
H	   8.1470000000	  47.8936000000	  50.2880000000
H	   8.0772200000	  46.3038000000	  50.9181000000
H	   5.7394500000	  47.6388000000	  53.1097000000
H	   5.4779100000	  49.0876000000	  51.8910000000
S	   9.4011000000	  51.4177000000	  50.7334000000
S	   8.9229100000	  51.7059000000	  48.7212000000
S	   7.1878600000	  50.6113000000	  48.1871000000
S	   9.8944500000	  48.9500000000	  44.7887000000
S	  10.5500000000	  47.3564000000	  43.6703000000
S	  11.3989000000	  45.7651000000	  44.8125000000
S	   7.9572200000	  48.5266000000	  45.4775000000
S	   7.6724200000	  48.6739000000	  47.5508000000
S	  -1.7233164425	  47.7270000000	  54.1835000000
S	  -1.9453164425	  49.5976000000	  53.2870000000
S	  -1.3737164425	  51.2905000000	  54.4324000000
S	   3.5942600000	  51.3116000000	  54.1575000000
S	   5.5125400000	  52.1621000000	  54.2606000000
S	   6.4094000000	  52.2719000000	  52.3902000000
S	   1.9362900000	  52.6481000000	  54.5376000000
S	   0.1425835575	  52.3151000000	  53.4214000000
