28

Li	  47.0652000000	  46.1302000000	  55.9487000000
O	  45.6675000000	  46.6427000000	  54.9896000000
O	  44.1070000000	  47.9599000000	  54.3317000000
C	  44.4927000000	  45.7768000000	  54.9659000000
C	  43.4788000000	  46.6536000000	  54.3616000000
C	  45.4188000000	  47.7425000000	  54.1929000000
H	  44.6257000000	  44.9810000000	  54.2710000000
H	  44.2164000000	  45.4123000000	  55.9597000000
H	  43.2297000000	  46.2958000000	  53.3612000000
H	  42.5289000000	  46.7009000000	  54.9555000000
H	  45.8726000000	  48.7060000000	  54.5908000000
H	  45.6807000000	  47.4774000000	  53.1175000000
S	  48.2153000000	  38.4289000000	  63.1902964425
S	  47.2907000000	  37.9377000000	  61.3669564425
S	  47.9316000000	  38.7943000000	  59.6110864425
S	  46.6901000000	  43.4429000000	  57.3485000000
S	  47.2603000000	  43.2708000000	  55.2710000000
S	  48.6103000000	  44.9268000000	  54.9478000000
S	  47.7040000000	  42.1316000000	  58.5470000000
S	  46.6872000000	  40.2987000000	  58.8825000000
S	  39.5598000000	  53.4357000000	  56.4530000000
S	  40.2526000000	  53.1166000000	  58.3504000000
S	  42.3622000000	  53.1594000000	  58.5426000000
S	  44.8586000000	  48.7422000000	  57.5907000000
S	  46.0246000000	  47.1734000000	  58.3442000000
S	  47.9822000000	  47.3046000000	  57.4511000000
S	  45.0228000000	  50.5561000000	  58.7056000000
S	  43.0969000000	  51.2482000000	  59.2546914425
