39

Li	  15.5542000000	  32.5101000000	  48.3633000000
N	  19.1369000000	  33.3025000000	  48.9870000000
S	  18.7298000000	  33.3623000000	  47.4546000000
O	  19.6547000000	  32.8161000000	  46.5118000000
O	  17.3722000000	  33.0712000000	  47.2498000000
C	  18.9031000000	  35.1748000000	  47.1713000000
F	  20.1792000000	  35.4760000000	  47.0693000000
F	  18.4521000000	  35.8630000000	  48.2502000000
F	  18.3142000000	  35.6969000000	  46.0785000000
S	  18.2639000000	  32.7257000000	  50.1652000000
O	  16.9641000000	  32.1623000000	  49.7984000000
O	  18.3189000000	  33.4697000000	  51.4210000000
C	  19.1558000000	  31.2469000000	  50.5730000000
F	  18.4705000000	  30.3640000000	  51.2995000000
F	  19.4403000000	  30.5069000000	  49.5149000000
F	  20.3264000000	  31.3957000000	  51.1931000000
N	  14.7619000000	  29.0774000000	  46.0264000000
S	  16.1063000000	  29.3196000000	  46.7866000000
O	  17.2795000000	  29.0101000000	  46.0045000000
O	  16.1140000000	  30.4388000000	  47.7609000000
C	  16.0496000000	  27.8542000000	  47.9792000000
F	  15.0373000000	  27.7886000000	  48.8172000000
F	  17.1128000000	  27.8100000000	  48.7970000000
F	  15.9859000000	  26.7274000000	  47.3308000000
S	  13.4813000000	  29.9716000000	  45.9646000000
O	  13.0320000000	  30.0518000000	  44.5830000000
O	  13.5188000000	  31.1789000000	  46.7807000000
C	  12.2940000000	  28.9431000000	  46.8660000000
F	  12.2443000000	  27.6137000000	  46.5631000000
F	  12.5547000000	  28.9732000000	  48.1559000000
F	  11.1272000000	  29.5086000000	  46.6429000000
S	  14.3008000000	  34.0711000000	  48.9997000000
S	  14.4896000000	  36.2078000000	  48.5412000000
S	  15.7459000000	  37.2004000000	  49.9439000000
S	  18.2356000000	  40.6340000000	  51.6489000000
S	  18.7675000000	  39.9072000000	  53.5487000000
S	  20.7465000000	  40.1518000000	  54.1698000000
S	  18.5622000000	  39.3465000000	  50.0357000000
S	  16.8491000000	  38.7840000000	  49.1364000000
