39

Li	  17.9666000000	  19.5491000000	   4.4246800000
N	  17.5260000000	  19.7828000000	   8.6948200000
S	  16.8908000000	  18.8403000000	   9.7329100000
O	  15.4240000000	  18.5785000000	   9.5054200000
O	  17.7424000000	  17.6613000000	   9.9867900000
C	  17.0300000000	  19.8080000000	  11.2614000000
F	  16.4511000000	  20.9803000000	  11.1727000000
F	  18.2431000000	  20.0739000000	  11.5354000000
F	  16.4881000000	  19.1704000000	  12.3111000000
S	  16.8982000000	  20.6090000000	   7.5309300000
O	  15.4774000000	  20.7217000000	   7.7122100000
O	  17.4102000000	  20.2817000000	   6.2226300000
C	  17.6103000000	  22.2237000000	   7.9593200000
F	  17.1729000000	  23.1257000000	   7.1541900000
F	  17.3716000000	  22.6211000000	   9.2019900000
F	  18.9394000000	  22.2598000000	   7.8072800000
N	  16.3406000000	  16.5699000000	   5.6955500000
S	  15.4488000000	  17.7917000000	   5.2994000000
O	  14.7177000000	  18.3013000000	   6.4710600000
O	  16.0823000000	  18.7318000000	   4.4112800000
C	  14.1403000000	  17.0011000000	   4.2088400000
F	  13.3313000000	  17.8379000000	   3.5499300000
F	  13.3285000000	  16.2723000000	   4.8540000000
F	  14.7119000000	  16.3097000000	   3.2774200000
S	  17.8550000000	  16.5939000000	   6.0432600000
O	  18.1393000000	  16.3516000000	   7.4032600000
O	  18.5499000000	  17.6803000000	   5.4084200000
C	  18.6166000000	  15.1642000000	   5.1973500000
F	  18.6460000000	  15.3359000000	   3.8620800000
F	  19.8647000000	  14.9787000000	   5.6224000000
F	  18.0524000000	  14.0238000000	   5.3736600000
S	  18.7065000000	  19.7251000000	   2.5305200000
S	  19.4896000000	  21.2436000000	   3.7759400000
S	  20.5787000000	  20.3192000000	   5.3873000000
S	  24.9335000000	  21.6720000000	   4.3291100000
S	  26.8211000000	  22.5285000000	   4.6349200000
S	  26.9699000000	  24.5933000000	   4.1959100000
S	  24.0031000000	  21.0411000000	   6.0940200000
S	  21.9433000000	  21.6421000000	   6.3775300000
