32

Li	  39.9821000000	  52.6472000000	  56.9665000000
N	  42.0027000000	  53.3460000000	  59.9028464425
S	  40.9315000000	  52.2647000000	  59.9653564425
O	  40.0012000000	  52.2583000000	  58.8832000000
O	  41.4795000000	  50.9460000000	  60.3319064425
C	  39.9767000000	  52.6299000000	  61.4164364425
F	  40.7321000000	  52.7753000000	  62.5057264425
F	  39.2189000000	  51.6230000000	  61.6282464425
F	  39.1597000000	  53.6770000000	  61.2586164425
S	  42.0336000000	  54.6611000000	  59.0250000000
O	  40.7751000000	  55.0418000000	  58.4863000000
O	  43.0661000000	  54.7087000000	  58.0521000000
C	  42.4907000000	  55.9503000000	  60.1290264425
F	  41.6017000000	  56.2150000000	  61.0728564425
F	  43.6029000000	  55.6764000000	  60.7664564425
F	  42.6727000000	  57.0926000000	  59.5460964425
S	  41.7711000000	  52.5643000000	  55.9830000000
S	  41.0903000000	  53.1916000000	  54.0800000000
S	  39.6647000000	  51.8938000000	  53.1939000000
S	  40.7736000000	  50.8725000000	  48.3302000000
S	  40.1900000000	  52.4340000000	  47.0022000000
S	  41.3597000000	  54.1993000000	  47.1651000000
S	  39.4417000000	  50.5897000000	  49.9351000000
S	  40.6032000000	  50.7402000000	  51.6882000000
S	  38.3144000000	  53.8704000000	  56.5716000000
S	  37.4153000000	  51.9715000000	  56.2638000000
S	  38.8744000000	  50.4970000000	  56.5198000000
S	  39.9198000000	  45.8767000000	  57.8090000000
S	  39.3252000000	  44.4755000000	  59.3564564425
S	  37.2384000000	  44.0893000000	  59.3804664425
S	  40.0822000000	  47.8657000000	  58.4069000000
S	  38.4502000000	  49.2130000000	  58.0563000000
