61

Li	  53.0201000000	  22.0081000000	  41.1667000000
N	  52.3393000000	  25.8505000000	  42.6584000000
S	  50.9059000000	  25.2797000000	  42.7385000000
O	  50.3672000000	  24.6372000000	  41.5371000000
O	  50.7171000000	  24.5733000000	  43.9709000000
C	  49.8660000000	  26.6976000000	  42.7838000000
F	  50.1152000000	  27.4136000000	  43.8748000000
F	  48.5954000000	  26.5062000000	  42.7907000000
F	  50.1286000000	  27.4973000000	  41.6887000000
S	  53.4935000000	  25.1442000000	  41.9509000000
O	  53.8125000000	  25.6891000000	  40.6485000000
O	  53.4021000000	  23.7134000000	  42.1643000000
C	  54.9126000000	  25.5913000000	  43.0023000000
F	  56.0261000000	  25.1448000000	  42.4707000000
F	  55.0172000000	  26.9748000000	  43.0532000000
F	  54.8438000000	  25.1183000000	  44.2684000000
N	  50.4182000000	  21.6895000000	  38.1415000000
S	  51.8248000000	  22.4233000000	  38.0577000000
O	  52.5536000000	  22.5459000000	  39.2985000000
O	  52.4962000000	  22.1272000000	  36.8188000000
C	  51.2524000000	  24.1618000000	  37.8093000000
F	  52.2852000000	  25.0100000000	  37.4957000000
F	  50.6017000000	  24.5835000000	  38.8659000000
F	  50.3629000000	  24.2028000000	  36.8357000000
S	  49.5671000000	  21.4834000000	  39.4346000000
O	  50.0062000000	  22.0807000000	  40.6568000000
O	  49.0364000000	  20.1321000000	  39.5491000000
C	  48.0609000000	  22.4979000000	  39.0333000000
F	  47.0910000000	  22.2828000000	  39.8911000000
F	  48.2267000000	  23.8274000000	  39.0817000000
F	  47.6269000000	  22.1481000000	  37.8397000000
N	  56.2947000000	  20.5135000000	  39.3045000000
S	  56.0256000000	  20.6013000000	  40.8722000000
O	  54.9668000000	  21.5389000000	  41.1055000000
O	  55.8458000000	  19.3399000000	  41.5203000000
C	  57.4792000000	  21.4144000000	  41.6704000000
F	  57.1971000000	  21.4280000000	  43.0202000000
F	  57.5953000000	  22.6680000000	  41.2478000000
F	  58.6033000000	  20.8092000000	  41.4952000000
S	  57.5134000000	  19.8054000000	  38.5609000000
O	  57.9333000000	  18.5423000000	  39.1832000000
O	  58.6187000000	  20.7065000000	  38.2784000000
C	  56.8408000000	  19.3526000000	  36.9514000000
F	  55.9915000000	  20.3072000000	  36.5114000000
F	  57.8196000000	  19.2642000000	  36.0306000000
F	  56.1690000000	  18.2787000000	  36.9307000000
N	  51.2800000000	  19.5502000000	  44.2078000000
S	  52.2469000000	  20.7167000000	  43.9520000000
O	  52.6142000000	  20.9072000000	  42.5649000000
O	  51.8733000000	  21.9290000000	  44.6488000000
C	  53.8046000000	  20.1995000000	  44.7358000000
F	  54.7833000000	  21.0683000000	  44.5934000000
F	  54.2358000000	  19.0142000000	  44.3119000000
F	  53.6079000000	  20.1550000000	  46.0642000000
S	  50.0909000000	  19.4786000000	  45.2542000000
O	  49.0007000000	  18.6246000000	  44.8232000000
O	  49.7492000000	  20.7239000000	  45.9438000000
C	  50.8606000000	  18.4602000000	  46.5488000000
F	  49.9799000000	  17.8718000000	  47.3035000000
F	  51.5127000000	  17.5225000000	  45.8980000000
F	  51.7463000000	  19.0748000000	  47.2242000000
