72

Li	  37.9389000000	  35.8031000000	  36.6126000000
O	  40.2778000000	  34.0059000000	  39.1182000000
O	  39.1199000000	  35.6702000000	  38.2308000000
C	  41.2402000000	  35.0838000000	  38.8657000000
C	  40.3805000000	  36.3091000000	  38.4593000000
C	  39.1229000000	  34.6808000000	  39.1690000000
H	  41.8601000000	  35.2641000000	  39.7835000000
H	  41.7799000000	  34.8454000000	  37.9792000000
H	  40.2750000000	  36.9563000000	  39.3011000000
H	  40.6569000000	  36.7751000000	  37.5045000000
H	  38.1757000000	  34.1658000000	  38.9654000000
H	  39.0056000000	  35.1912000000	  40.2329000000
N	  35.3171000000	  38.3592000000	  39.4758000000
S	  34.0679000000	  38.1837000000	  40.4297000000
O	  32.7822000000	  38.0723000000	  39.7218000000
O	  34.4076000000	  37.4162000000	  41.6244000000
C	  34.0842000000	  39.9373000000	  41.0267000000
F	  33.0812000000	  40.0909000000	  41.8453000000
F	  34.0221000000	  40.8774000000	  40.0668000000
F	  35.1858000000	  40.2242000000	  41.6975000000
S	  35.4234000000	  37.7884000000	  37.9892000000
O	  34.2234000000	  37.3117000000	  37.3595000000
O	  36.6463000000	  37.0146000000	  37.8582000000
C	  35.7934000000	  39.3315000000	  37.1340000000
F	  37.0371000000	  39.7798000000	  37.3587000000
F	  35.7070000000	  39.1783000000	  35.8717000000
F	  35.0132000000	  40.3289000000	  37.5084000000
N	  41.3714000000	  33.0259000000	  35.1862000000
S	  39.8801000000	  33.2380000000	  35.5826000000
O	  39.3682000000	  32.3749000000	  36.5695000000
O	  39.5760000000	  34.6434000000	  35.7481000000
C	  39.1214000000	  32.8271000000	  34.0175000000
F	  37.9048000000	  32.3480000000	  34.0387000000
F	  39.7949000000	  31.9624000000	  33.2889000000
F	  39.0360000000	  33.9188000000	  33.3538000000
S	  42.4299000000	  32.2651000000	  36.1245000000
O	  42.1305000000	  32.1180000000	  37.5461000000
O	  43.7904000000	  32.6599000000	  35.6661000000
C	  42.2021000000	  30.5494000000	  35.5849000000
F	  42.7108000000	  30.3590000000	  34.3935000000
F	  42.7956000000	  29.6537000000	  36.3075000000
F	  40.9008000000	  30.1713000000	  35.5180000000
N	  35.5866000000	  33.5213000000	  38.6068000000
S	  35.1365000000	  34.1893000000	  39.9870000000
O	  36.2009000000	  34.2297000000	  40.9497000000
O	  34.1127000000	  35.2376000000	  39.7781000000
C	  34.1841000000	  32.7811000000	  40.7636000000
F	  34.9187000000	  31.7570000000	  40.7689000000
F	  33.0154000000	  32.5739000000	  40.1049000000
F	  33.8462000000	  33.0957000000	  42.0205000000
S	  35.4221000000	  33.8471000000	  37.1101000000
O	  36.6400000000	  34.4529000000	  36.6241000000
O	  34.1988000000	  34.5293000000	  36.8019000000
C	  35.2017000000	  32.2287000000	  36.1726000000
F	  34.2431000000	  31.5329000000	  36.6904000000
F	  34.8347000000	  32.5196000000	  34.9358000000
F	  36.3091000000	  31.4494000000	  36.1961000000
N	  37.9377000000	  36.7654000000	  33.4338000000
S	  38.6673000000	  37.7816000000	  34.3562000000
O	  38.3870000000	  39.1575000000	  34.0665000000
O	  38.6660000000	  37.3675000000	  35.7630000000
C	  40.3936000000	  37.4260000000	  33.7500000000
F	  41.2172000000	  38.1879000000	  34.3287000000
F	  40.4795000000	  37.5891000000	  32.4469000000
F	  40.8343000000	  36.2404000000	  33.8175000000
S	  36.9621000000	  37.1934000000	  32.2656000000
O	  37.3202000000	  36.4877000000	  31.0606000000
O	  36.6911000000	  38.5896000000	  32.0771000000
C	  35.4746000000	  36.3444000000	  32.7697000000
F	  34.9660000000	  36.7157000000	  33.9190000000
F	  34.5144000000	  36.5324000000	  31.8894000000
F	  35.7365000000	  35.0622000000	  32.9145000000
