46

Li	   6.4194400000	  18.7909000000	  56.3845000000
O	   4.7277600000	  17.2317000000	  55.4738000000
O	   3.2484700000	  16.7480000000	  57.0175000000
C	   4.9974500000	  15.9086000000	  55.8775000000
C	   3.8330200000	  15.4639000000	  56.7292000000
C	   3.4012600000	  17.4800000000	  55.8426000000
H	   5.2053400000	  15.3497000000	  54.9504000000
H	   5.9294500000	  16.0516000000	  56.3806000000
H	   3.1116500000	  14.9208000000	  56.0776000000
H	   4.0675900000	  14.9046000000	  57.6502000000
H	   3.2139200000	  18.6001000000	  55.9825000000
H	   2.6471700000	  17.2346000000	  55.0688000000
O	   9.4748900000	  18.0426000000	  53.9081000000
O	   7.8700300000	  18.0030000000	  55.5372000000
C	  10.0167000000	  17.2399000000	  54.8966000000
C	   9.2196900000	  17.8027000000	  56.0899000000
C	   8.1286900000	  17.9619000000	  54.1168000000
H	   9.8612500000	  16.1306000000	  54.8438000000
H	  11.1065000000	  17.4934000000	  55.1247000000
H	   9.1823300000	  17.0572000000	  56.9052000000
H	   9.6249400000	  18.6855000000	  56.3986000000
H	   7.6279000000	  18.7197000000	  53.5151000000
H	   7.6238100000	  16.9585000000	  53.7230000000
N	   6.1486400000	  22.3231000000	  55.9935000000
S	   7.6010400000	  22.0768000000	  56.4969000000
O	   8.1086000000	  23.1585000000	  57.2904000000
O	   7.8251100000	  20.7298000000	  56.9543000000
C	   8.5391400000	  22.2872000000	  54.9197000000
F	   8.1671800000	  23.3669000000	  54.2868000000
F	   8.3483500000	  21.2088000000	  54.1545000000
F	   9.8283900000	  22.4100000000	  55.1049000000
S	   5.0049600000	  21.3475000000	  55.8568000000
O	   4.1361600000	  21.2994000000	  56.9789000000
O	   5.3933600000	  20.1071000000	  55.2428000000
C	   3.9653000000	  22.2108000000	  54.6358000000
F	   2.9256900000	  21.5344000000	  54.2928000000
F	   3.4623500000	  23.2869000000	  55.1870000000
F	   4.6396000000	  22.5746000000	  53.5922000000
S	   8.6407500000	  10.0735000000	  52.0909000000
S	   7.8886100000	  11.6488000000	  53.2969000000
S	   6.4469900000	  11.1783000000	  54.7976000000
S	   7.4230900000	  14.6526000000	  58.1567000000
S	   6.4835100000	  16.0682000000	  59.3225175715
S	   6.5627200000	  17.9126000000	  58.3878000000
S	   6.1276900000	  13.1123000000	  57.5839000000
S	   7.2593100000	  11.4997000000	  56.7435000000
