28

Li	  52.4601000000	  28.5993000000	  35.1660000000
O	  51.7640000000	  27.8382000000	  36.5551000000
O	  51.4049000000	  26.5081000000	  38.3983000000
C	  50.9194000000	  28.5820000000	  37.4247000000
C	  50.6848000000	  27.7036000000	  38.6671000000
C	  51.5322000000	  26.4817000000	  36.9800000000
H	  51.2814000000	  29.5832000000	  37.5670000000
H	  49.9598000000	  28.6872000000	  36.9038000000
H	  50.9722000000	  28.1625000000	  39.5985000000
H	  49.6289000000	  27.3176000000	  38.5936000000
H	  50.6036000000	  26.2207000000	  36.5807000000
H	  52.2985000000	  25.8334000000	  36.5882000000
S	  53.0557000000	  27.1900000000	  33.8079000000
S	  54.3757000000	  28.7320000000	  33.7727000000
S	  55.5921000000	  28.6784000000	  35.5635000000
S	  54.1379000000	  31.9582000000	  39.5844000000
S	  55.2662000000	  31.4682000000	  41.2251000000
S	  55.9117000000	  33.2541000000	  42.3948000000
S	  53.9356000000	  30.2770000000	  38.2273000000
S	  55.4145000000	  30.4098000000	  36.7515000000
S	  51.6594000000	  30.6894000000	  35.0177000000
S	  50.0674000000	  29.8459000000	  33.8676000000
S	  49.5563000000	  27.8299000000	  34.4125000000
S	  47.7260000000	  26.6279000000	  30.0255000000
S	  47.8996000000	  24.9032000000	  28.7044000000
S	  46.3291000000	  24.6916000000	  27.4383000000
S	  48.0167000000	  25.9822000000	  32.0268000000
S	  49.8260000000	  26.4713000000	  32.8574000000
