32

Li	  41.4695000000	  50.8327000000	  37.8114000000
N	  39.4730000000	  51.3949000000	  41.3290000000
S	  40.7251000000	  52.0709000000	  40.8117000000
O	  41.0436000000	  51.4381000000	  39.5657000000
O	  40.7202000000	  53.5132000000	  40.8257000000
C	  42.0225000000	  51.5148000000	  41.9606000000
F	  43.0520000000	  52.2307000000	  41.7206000000
F	  42.3044000000	  50.2559000000	  41.8331000000
F	  41.6071000000	  51.7181000000	  43.2409000000
S	  38.1112000000	  51.9368000000	  41.8559000000
O	  36.9347000000	  51.3099000000	  41.3042000000
O	  38.0815000000	  53.3504000000	  42.1016000000
C	  38.0433000000	  51.2986000000	  43.5689000000
F	  38.6392000000	  50.1441000000	  43.8149000000
F	  38.7199000000	  52.1687000000	  44.2690000000
F	  36.8355000000	  51.2139000000	  44.0475000000
S	  40.4902000000	  58.3164000000	  37.7554000000
S	  38.8226000000	  58.4886000000	  36.4168000000
S	  38.5669000000	  56.9407000000	  34.9624000000
S	  38.4552000000	  52.7984000000	  37.0031000000
S	  40.4096000000	  52.5063000000	  36.6018000000
S	  40.6886000000	  50.5349000000	  35.8346000000
S	  37.1515000000	  53.6680000000	  35.4963000000
S	  36.9086000000	  55.8571000000	  35.8228000000
S	  44.4276000000	  45.9181000000	  30.3332000000
S	  46.4459000000	  46.5857000000	  30.4311000000
S	  46.6676000000	  48.2012000000	  31.7973000000
S	  46.0763000000	  48.7746000000	  36.7330000000
S	  44.3117000000	  49.1644000000	  37.7007000000
S	  43.6698000000	  51.1721000000	  37.6179000000
S	  45.5183000000	  47.8191000000	  34.9574000000
S	  47.0680000000	  47.3646000000	  33.6598000000
