39

Li	  44.1601000000	  48.5409000000	  43.0047000000
O	  44.5194000000	  52.6047000000	  42.6439000000
O	  43.9094000000	  50.4106000000	  42.7726000000
C	  43.1295000000	  52.4429000000	  42.2504000000
C	  42.7288000000	  51.1802000000	  42.8576000000
C	  44.9138000000	  51.2811000000	  42.4776000000
H	  42.4398000000	  53.1817000000	  42.6252000000
H	  43.1945000000	  52.3883000000	  41.2253000000
H	  42.6071000000	  51.4427000000	  43.8857000000
H	  41.7648000000	  50.7170000000	  42.5493000000
H	  45.2195000000	  51.1816000000	  41.4359000000
H	  45.8155000000	  51.2140000000	  43.1174000000
O	  44.8738000000	  47.1671000000	  46.6497000000
O	  44.9385000000	  48.1348000000	  44.5873000000
C	  44.8149000000	  48.5777000000	  46.8218000000
C	  44.3576000000	  49.1140000000	  45.4470000000
C	  45.2984000000	  47.0154000000	  45.3383000000
H	  44.0246000000	  48.9878000000	  47.5265000000
H	  45.8040000000	  49.0950000000	  46.9450000000
H	  43.2648000000	  49.1055000000	  45.4353000000
H	  44.6984000000	  50.0974000000	  45.2111000000
H	  46.3860000000	  46.8855000000	  45.3871000000
H	  44.8555000000	  46.0978000000	  44.9140000000
S	  45.8150000000	  48.4910000000	  41.4804000000
S	  44.5185000000	  48.3230000000	  39.8188000000
S	  43.4666000000	  50.1152000000	  39.3895000000
S	  47.7281000000	  52.2694000000	  39.2361000000
S	  48.3010000000	  51.3566000000	  41.0542000000
S	  49.3660000000	  49.5871000000	  41.0215000000
S	  45.6641000000	  52.8265000000	  39.0333000000
S	  44.4647000000	  51.3428000000	  38.0389000000
S	  41.6882000000	  44.0408000000	  33.5551000000
S	  43.7120000000	  44.2266000000	  34.1076000000
S	  44.1786000000	  43.2786000000	  35.9225000000
S	  42.6486000000	  44.9852000000	  40.6353000000
S	  43.2350000000	  45.8354000000	  42.4626000000
S	  42.3599000000	  47.6798000000	  42.8061000000
S	  44.1774000000	  43.9147000000	  39.5117000000
S	  44.6776000000	  44.6210000000	  37.5016000000
