28

Li	  43.1002000000	  56.0535000000	  39.8797000000
O	  44.0693000000	  56.3246000000	  36.5409000000
O	  43.5783000000	  57.1907000000	  38.5224000000
C	  45.1875000000	  56.9099000000	  37.1664000000
C	  44.6457000000	  58.0074000000	  38.0853000000
C	  43.0654000000	  56.5019000000	  37.4672000000
H	  45.6785000000	  56.0912000000	  37.7484000000
H	  45.8864000000	  57.2879000000	  36.3989000000
H	  45.4269000000	  58.1587000000	  38.8294000000
H	  44.3363000000	  58.8590000000	  37.5064000000
H	  42.3593000000	  57.2198000000	  37.0534000000
H	  42.4952000000	  55.6045000000	  37.5908000000
S	  41.5116000000	  54.7874000000	  40.1022000000
S	  40.0497000000	  56.0184000000	  39.1076000000
S	  38.8355000000	  54.7973000000	  37.7358000000
S	  38.2188000000	  51.1591000000	  40.7399000000
S	  40.2482000000	  50.9508000000	  40.3894000000
S	  40.5723000000	  48.8763000000	  39.7233000000
S	  37.3010000000	  51.7756000000	  38.9866000000
S	  37.1743000000	  53.8873000000	  38.7507000000
S	  39.5724000000	  59.1753454200	  49.3415000000
S	  39.5174000000	  57.3211000000	  48.3406000000
S	  39.9190000000	  57.8837000000	  46.3066000000
S	  42.2503000000	  58.0793000000	  42.1522000000
S	  44.1821000000	  57.6344000000	  41.4597000000
S	  44.6464000000	  55.5743000000	  41.1105000000
S	  42.2557000000	  58.9589000000	  44.0722000000
S	  41.8535000000	  57.5522000000	  45.6202000000
