28

Li	  47.6799000000	  47.7491000000	  45.7959000000
O	  47.9573000000	  51.6821000000	  47.4046000000
O	  47.2822000000	  49.6420000000	  46.6370000000
C	  47.0370000000	  51.0593000000	  48.3230000000
C	  46.2231000000	  50.1507000000	  47.3780000000
C	  48.2908000000	  50.6143000000	  46.5707000000
H	  47.5839000000	  50.4576000000	  49.0982000000
H	  46.3961000000	  51.8016000000	  48.8084000000
H	  45.6616000000	  49.2667000000	  47.6829000000
H	  45.8123000000	  50.8658000000	  46.6218000000
H	  48.5684000000	  50.7672000000	  45.5223000000
H	  49.1560000000	  50.1359000000	  47.0670000000
S	  49.6856000000	  47.6475000000	  46.1631000000
S	  49.1019000000	  47.2304000000	  44.1537000000
S	  47.6438000000	  48.5894000000	  43.3635000000
S	  50.8047000000	  52.4515000000	  43.2563000000
S	  51.5323000000	  52.2516000000	  45.1651000000
S	  52.3678000000	  50.4159000000	  45.5300000000
S	  48.7946000000	  51.9458000000	  43.0293000000
S	  48.4861000000	  50.0966000000	  42.0784000000
S	  45.0417000000	  45.3566000000	  36.7162000000
S	  46.9782000000	  46.2621000000	  36.9539000000
S	  48.2924000000	  45.2048000000	  38.1352000000
S	  46.4211000000	  44.5471000000	  42.6599000000
S	  46.8482000000	  44.5672000000	  44.6929000000
S	  46.0341000000	  46.2131000000	  45.7067000000
S	  48.1381000000	  44.2271000000	  41.3924000000
S	  48.5317000000	  45.8146000000	  40.1301000000
