49

Li	  56.6636000000	  45.1596000000	  34.5489000000
O	  53.1161000000	  43.6021000000	  33.7298000000
O	  54.8901000000	  45.0461000000	  34.1600000000
C	  52.4553000000	  44.7808000000	  34.1111000000
C	  53.6093000000	  45.8465000000	  34.3180000000
C	  54.3711000000	  43.7535000000	  34.3635000000
H	  51.6247000000	  45.0146000000	  33.4285000000
H	  51.9806000000	  44.4123000000	  34.9918000000
H	  53.6797000000	  46.7258000000	  33.7086000000
H	  53.4152000000	  46.2136000000	  35.3835000000
H	  54.2565000000	  43.5463000000	  35.4122000000
H	  55.0785000000	  43.1195000000	  33.7958000000
O	  57.7149000000	  46.0307000000	  30.7488000000
O	  57.3273000000	  45.1352000000	  32.8586000000
C	  58.7049000000	  46.4851000000	  31.6357000000
C	  58.5706000000	  45.7164000000	  32.9343000000
C	  57.1872000000	  44.9411000000	  31.5004000000
H	  59.6733944072	  46.3871000000	  31.1958000000
H	  58.5432000000	  47.6102000000	  31.8459000000
H	  59.3459044072	  44.9239000000	  32.8575000000
H	  58.6352000000	  46.2934000000	  33.9008000000
H	  56.1022000000	  44.7488000000	  31.3174000000
H	  57.8154000000	  44.1213000000	  31.1927000000
O	  59.5892844072	  42.2203000000	  35.3190000000
O	  57.6550000000	  43.3266000000	  35.3069000000
C	  59.0443000000	  42.1001000000	  36.6394000000
C	  58.1132000000	  43.3044000000	  36.6597000000
C	  58.4168000000	  42.3695000000	  34.6127000000
H	  58.5370000000	  41.1206000000	  36.9129000000
H	  59.8002344072	  42.1817000000	  37.4123000000
H	  57.3072000000	  43.3482000000	  37.4646000000
H	  58.5280000000	  44.3165000000	  36.7803000000
H	  58.7000000000	  42.7511000000	  33.6685000000
H	  57.9466000000	  41.4467000000	  34.3598000000
N	  56.0456000000	  48.4549000000	  36.6212000000
S	  56.1090000000	  47.0144000000	  37.2471000000
O	  55.0869000000	  46.7346000000	  38.2272000000
O	  56.4873000000	  46.0253000000	  36.2839000000
C	  57.5031000000	  47.2343000000	  38.3787000000
F	  58.7626000000	  47.2172000000	  37.8286000000
F	  57.6444000000	  46.2317000000	  39.1313000000
F	  57.5109000000	  48.2996000000	  39.2397000000
S	  56.1602000000	  48.7223000000	  35.0710000000
O	  54.9910000000	  49.4454000000	  34.6095000000
O	  56.7101000000	  47.6190000000	  34.3175000000
C	  57.4189000000	  49.9345000000	  35.0439000000
F	  57.7554000000	  50.2069000000	  33.7933000000
F	  56.9923000000	  51.0299000000	  35.5785000000
F	  58.4593000000	  49.5628000000	  35.7006000000
