40

Li	  43.1701000000	  49.6819000000	  40.8401000000
N	  40.1316000000	  51.0483000000	  43.1013000000
S	  41.6529000000	  51.4076000000	  43.1579000000
O	  42.5470000000	  50.5677000000	  42.3310000000
O	  41.8643000000	  52.8289000000	  42.9937000000
C	  42.1565000000	  50.8246000000	  44.8431000000
F	  41.9681000000	  49.5009000000	  45.1016000000
F	  41.5799000000	  51.4593000000	  45.7491000000
F	  43.4579000000	  51.0519000000	  45.0781000000
S	  38.8329000000	  51.9301000000	  43.1249000000
O	  37.9300000000	  51.6425000000	  42.0001000000
O	  38.9545000000	  53.2820000000	  43.6460000000
C	  37.7833000000	  51.2944000000	  44.5170000000
F	  37.4434000000	  50.0301000000	  44.2868000000
F	  38.4594000000	  51.3707000000	  45.6711000000
F	  36.6092000000	  51.9837000000	  44.6139000000
S	  42.1602000000	  59.1601154200	  38.2657000000
S	  41.9326000000	  57.1523000000	  37.8326000000
S	  40.0476000000	  56.5247000000	  36.9525000000
S	  40.5247000000	  52.6226000000	  39.6763000000
S	  42.5374000000	  52.8308000000	  39.4157000000
S	  43.4768000000	  50.9231000000	  39.1776000000
S	  39.4217000000	  53.3335000000	  38.0678000000
S	  38.7860000000	  55.3242000000	  38.2323000000
S	  46.4837000000	  45.7900000000	  32.9714000000
S	  48.3512000000	  45.4010000000	  33.8809000000
S	  48.1739000000	  44.6689000000	  35.8873000000
S	  46.7327000000	  46.8703000000	  39.8112000000
S	  47.2152000000	  48.5932000000	  40.9171000000
S	  45.5046000000	  49.5946000000	  41.4548000000
S	  48.3955000000	  45.5835000000	  39.2614000000
S	  49.0762000000	  46.0100000000	  37.3191000000
S	  42.9303000000	  47.5360000000	  39.7383000000
S	  42.2334000000	  47.5551000000	  41.6829000000
S	  40.2098000000	  46.8709000000	  41.7064000000
S	  41.9119000000	  42.9252000000	  43.6601000000
S	  43.1719000000	  42.6997000000	  41.9860000000
S	  44.1130000000	  44.5230000000	  41.4776000000
S	  40.0463000000	  43.6695000000	  43.1800000000
S	  39.8135000000	  45.7763000000	  43.5278000000
