42

Li	   2.0604300000	  22.9726000000	  32.0987000000
O	   0.3833255928	  22.8170000000	  31.2314000000
O	  -0.7549744072	  20.9322000000	  31.4890000000
C	   0.0178255928	  22.5285000000	  29.9150000000
C	  -0.4629744072	  21.0619000000	  30.1274000000
C	  -0.5553744072	  22.1526000000	  31.9954000000
H	  -0.6970744072	  23.2428000000	  29.4749000000
H	   0.8096255928	  22.5171000000	  29.1650000000
H	  -1.3093744072	  20.7514000000	  29.4873000000
H	   0.2476255928	  20.2926000000	  29.8184000000
H	  -0.2588744072	  22.0977000000	  32.9956000000
H	  -1.4155744072	  22.8362000000	  31.9233000000
N	   5.6040900000	  21.6410000000	  31.2692000000
S	   5.9131200000	  22.6434000000	  32.3981000000
O	   6.7920400000	  23.7168000000	  31.9505000000
O	   4.7606300000	  22.9465000000	  33.2382000000
C	   6.9668800000	  21.7168000000	  33.5039000000
F	   6.2896900000	  20.6564000000	  33.9632000000
F	   7.3853900000	  22.4273000000	  34.5337000000
F	   8.0296900000	  21.2995000000	  32.9406000000
S	   4.2908500000	  20.8076000000	  31.0989000000
O	   3.0553300000	  21.3058000000	  31.7406000000
O	   4.6212000000	  19.3940000000	  31.2955000000
C	   3.9720100000	  21.1242000000	  29.3191000000
F	   3.9581000000	  22.3998000000	  29.0649000000
F	   4.8701600000	  20.5983000000	  28.5929000000
F	   2.7328200000	  20.7424000000	  28.9588000000
N	   2.7151800000	  26.5749000000	  31.7823000000
S	   1.7513600000	  26.2850000000	  32.9837000000
O	   0.6136255928	  27.1614000000	  33.0978000000
O	   1.5512700000	  24.8704000000	  33.1864000000
C	   2.8636600000	  26.8733000000	  34.3559000000
F	   2.2630800000	  26.7702000000	  35.5148000000
F	   3.1992300000	  28.1809000000	  34.2481000000
F	   3.9877500000	  26.1462000000	  34.5165000000
S	   3.6108900000	  25.6012000000	  30.8948000000
O	   3.1947500000	  24.2307000000	  30.9795000000
O	   5.0318700000	  25.8619000000	  30.7365000000
C	   2.9193400000	  25.9819000000	  29.1777000000
F	   3.1289500000	  27.2267000000	  28.8273000000
F	   3.2844000000	  25.1427000000	  28.2229000000
F	   1.6185700000	  25.8438000000	  29.2980000000
