39

Li	  21.1201000000	  40.7377000000	  12.4897000000
O	  17.9753000000	  43.2327000000	  12.3295000000
O	  19.6671000000	  42.0178000000	  11.6655000000
C	  19.0677000000	  44.0351000000	  12.4437000000
C	  20.2202000000	  43.3612000000	  11.7599000000
C	  18.3529000000	  42.1674000000	  11.5242000000
H	  18.8685000000	  44.8804000000	  11.7991000000
H	  19.2060000000	  44.5062000000	  13.3769000000
H	  20.4335000000	  43.7761000000	  10.8280000000
H	  21.1125000000	  43.4824000000	  12.4180000000
H	  17.8769000000	  41.2546000000	  12.0141000000
H	  17.9679000000	  42.2408000000	  10.4729000000
O	  19.8028000000	  40.1521000000	  13.5876000000
O	  19.0034000000	  40.1557000000	  15.6420000000
C	  19.9624000000	  38.7681000000	  13.8950000000
C	  19.1769000000	  38.7752000000	  15.2299000000
C	  18.8626000000	  40.7142000000	  14.4958000000
H	  19.4996000000	  38.1803000000	  13.1905000000
H	  20.9891000000	  38.6010000000	  14.0600000000
H	  18.1569000000	  38.3675000000	  15.1414000000
H	  19.7085000000	  38.1587000000	  15.9895000000
H	  19.0698000000	  41.7662000000	  14.5304000000
H	  17.7698000000	  40.5417000000	  14.1842000000
S	  22.6802000000	  41.5051000000	  13.7468000000
S	  22.3751000000	  40.8356000000	  15.7581000000
S	  24.0533000000	  39.7951000000	  16.5525000000
S	  24.8167000000	  40.2970000000	  21.2687000000
S	  25.8035000000	  41.8573000000	  22.2280000000
S	  24.5511000000	  43.6302000000	  22.4697000000
S	  25.8738000000	  39.8643000000	  19.5750000000
S	  25.3815000000	  40.9414000000	  17.8988000000
S	  21.6459000000	  39.3282000000	  10.8368000000
S	  22.5314000000	  41.2447000000	  10.5203000000
S	  23.9978000000	  41.4061000000	   9.0144400000
S	  29.1851000000	  43.1401000000	   9.5844600000
S	  30.3155000000	  43.8022000000	   7.9561900000
S	  31.6640000000	  42.3020000000	   7.2956500000
S	  27.0918000000	  43.0307000000	   9.3504700000
S	  26.0574000000	  41.1955000000	   9.5948600000
