61

Li	  26.0194000000	   5.6553900000	  57.5348000000
N	  24.3399000000	   3.1277600000	  55.6955000000
S	  25.8370000000	   2.8854100000	  55.9823000000
O	  26.6426000000	   2.8896600000	  54.7927000000
O	  26.3421000000	   3.5758600000	  57.1028000000
C	  25.7194000000	   1.1220600000	  56.4835000000
F	  25.5701000000	   0.2940845800	  55.5009000000
F	  24.7542000000	   0.9110845800	  57.3618000000
F	  26.9261000000	   0.7757845800	  57.0561000000
S	  23.5255000000	   4.2602200000	  56.1452000000
O	  22.5643000000	   4.6304300000	  55.2023000000
O	  24.2200000000	   5.2604100000	  56.9014000000
C	  22.5174000000	   3.4193800000	  57.4777000000
F	  23.1259000000	   2.9723800000	  58.5498000000
F	  21.6198000000	   4.3044600000	  57.9536000000
F	  21.7528000000	   2.4269400000	  56.9867000000
N	  27.9422000000	   8.4782500000	  59.1175000000
S	  26.4038000000	   8.7599200000	  59.0064000000
O	  25.6877000000	   7.8218900000	  58.1458000000
O	  25.7813000000	   9.2124400000	  60.2663075715
C	  26.4859000000	  10.3038000000	  57.9436000000
F	  27.4562000000	  10.1994000000	  57.0429000000
F	  26.7702000000	  11.3805000000	  58.6270000000
F	  25.4218000000	  10.4706000000	  57.1629000000
S	  28.7428000000	   7.1709900000	  58.7417000000
O	  27.9297000000	   6.2183000000	  58.0487000000
O	  29.6781000000	   6.6131200000	  59.7227675715
C	  29.7559000000	   7.8495500000	  57.3898000000
F	  30.3039000000	   9.0623600000	  57.6670000000
F	  30.7033000000	   7.0943200000	  56.9424000000
F	  28.9961000000	   8.0010700000	  56.2980000000
N	  25.9569000000	   5.8861600000	  61.7554875715
S	  26.9603000000	   6.8205900000	  62.5146175715
O	  28.3142000000	   6.6018800000	  62.0824175715
O	  26.4443000000	   8.1656300000	  62.7669175715
C	  26.8657000000	   6.0011600000	  64.1636675715
F	  27.5640000000	   4.8534200000	  64.1053875715
F	  25.6354000000	   5.8402500000	  64.5928475715
F	  27.4594000000	   6.7698300000	  65.0657275715
S	  26.1790000000	   4.9623600000	  60.5582575715
O	  27.5134000000	   4.4812700000	  60.3133675715
O	  25.3278000000	   5.2351500000	  59.4502775715
C	  25.3982000000	   3.4416500000	  61.2676975715
F	  24.1037000000	   3.6728900000	  61.5580975715
F	  25.3549000000	   2.3888400000	  60.3642575715
F	  25.9690000000	   2.9259800000	  62.2949675715
N	  28.4130000000	   6.0290900000	  53.8821000000
S	  29.1539000000	   4.8561100000	  53.1167000000
O	  28.3534000000	   3.7648000000	  52.7695000000
O	  30.1030000000	   5.3846500000	  52.1809000000
C	  30.2052000000	   4.2485500000	  54.5270000000
F	  30.6863000000	   3.0355700000	  54.3728000000
F	  29.5593000000	   4.1820500000	  55.6529000000
F	  31.2902000000	   5.0368700000	  54.7207000000
S	  26.9211000000	   6.1160600000	  54.2953000000
O	  26.7530000000	   6.2085700000	  55.7462000000
O	  25.9114000000	   5.3838000000	  53.5426000000
C	  26.5845000000	   7.8518300000	  53.8313000000
F	  26.8393000000	   8.1389100000	  52.5401000000
F	  25.3401000000	   8.1484400000	  54.1230000000
F	  27.3753000000	   8.6864300000	  54.4839000000
