39

Li	  25.2174000000	  41.7784000000	   7.2154800000
O	  26.1418000000	  41.0679000000	   5.6291600000
O	  26.7873000000	  41.0981000000	   3.4858400000
C	  27.5097000000	  41.1717000000	   5.7221700000
C	  27.8607000000	  41.5589000000	   4.3333400000
C	  25.8800000000	  40.5262000000	   4.4051500000
H	  27.7604000000	  41.8957000000	   6.5250300000
H	  27.9214000000	  40.2190000000	   6.0415200000
H	  28.0217000000	  42.6262000000	   4.3133300000
H	  28.7070000000	  41.0625000000	   3.9515500000
H	  25.9393000000	  39.4939000000	   4.4702100000
H	  24.9364000000	  40.8200000000	   3.9817300000
O	  26.2277000000	  40.0961000000	   8.5220200000
O	  26.4375000000	  39.0626000000	  10.4314000000
C	  26.0436000000	  38.7825000000	   8.2125900000
C	  25.9029000000	  38.1056000000	   9.5224600000
C	  26.8420000000	  40.1599000000	   9.7080500000
H	  25.2456000000	  38.6914000000	   7.4106700000
H	  26.9452000000	  38.3587000000	   7.8081300000
H	  24.8459000000	  37.8838000000	   9.7518400000
H	  26.4821000000	  37.1613000000	   9.6750400000
H	  27.8695000000	  40.0344000000	   9.5119300000
H	  26.6866000000	  41.0509000000	  10.3311000000
S	  25.2213000000	  43.1434000000	   8.8066700000
S	  25.5683000000	  43.9010000000	   6.7717600000
S	  26.5963000000	  45.7235000000	   6.6501700000
S	  30.2662000000	  43.5180000000	   5.8475600000
S	  31.2488000000	  43.2226000000	   3.9989600000
S	  32.9650000000	  42.2694000000	   4.3832700000
S	  29.7869000000	  45.5783000000	   6.0081600000
S	  27.9000000000	  45.7415000000	   5.0488000000
S	  23.0848000000	  40.8301000000	   6.4846900000
S	  21.7754000000	  40.4774000000	   8.1807100000
S	  19.7350000000	  40.3926000000	   7.6574700000
S	  16.5911000000	  43.1510000000	   5.5215100000
S	  15.4247000000	  44.1367000000	   6.8732300000
S	  14.1221000000	  42.6548000000	   7.6123300000
S	  18.4885000000	  43.4691000000	   6.2352400000
S	  18.7911000000	  42.2427000000	   7.9385300000
