28

Li	  11.2748000000	  35.7082000000	  17.3530000000
O	  10.8590000000	  35.3301000000	  19.2967000000
O	  10.3663000000	  35.5961000000	  21.5336000000
C	   9.8721500000	  34.3990000000	  19.6154000000
C	   9.9360500000	  34.3373000000	  21.1875000000
C	  10.7731000000	  36.2089000000	  20.3779000000
H	   8.9474900000	  34.6973000000	  19.2133000000
H	  10.2468000000	  33.4348000000	  19.2060000000
H	   8.9196600000	  34.1587000000	  21.5012000000
H	  10.3782000000	  33.5198000000	  21.7308000000
H	  11.7418000000	  36.7420000000	  20.6057000000
H	   9.9331500000	  36.9202000000	  20.1560000000
S	   9.9165000000	  36.5255000000	  15.7816000000
S	  10.4723000000	  38.0609000000	  17.1065000000
S	   9.4384300000	  39.8289000000	  16.9000000000
S	   7.4814100000	  38.3990000000	  21.1113000000
S	   6.6934900000	  39.0529000000	  23.0412000000
S	   5.5319600000	  37.4720000000	  23.7942000000
S	   6.9683700000	  39.6222000000	  19.5480000000
S	   8.6991300000	  40.6663000000	  18.7417000000
S	   5.8934800000	  36.0967000000	  15.5821000000
S	   6.9324900000	  34.2878000000	  15.9483000000
S	   7.3486600000	  33.3184000000	  14.1652000000
S	  11.2559000000	  33.1335000000	  16.5199000000
S	  13.2555000000	  33.8338000000	  16.6262000000
S	  13.4119000000	  35.9082000000	  17.3804000000
S	  10.7708000000	  32.8924000000	  14.4665000000
S	   8.9495300000	  31.9450000000	  14.3300000000
