31

Li	  14.1215000000	  14.3808000000	  44.1644000000
O	  14.3367000000	  14.2239000000	  48.2865000000
O	  13.7532000000	  14.1503000000	  46.1175000000
C	  14.0887000000	  12.8314000000	  48.0437000000
C	  13.9498000000	  12.8164000000	  46.5012000000
C	  13.6134000000	  14.8533000000	  47.3074000000
H	  14.8711000000	  12.1757000000	  48.3982000000
H	  13.1434000000	  12.4585000000	  48.4848000000
H	  14.8231000000	  12.3358000000	  46.0387000000
H	  13.0088000000	  12.3111000000	  46.1988000000
H	  12.6310000000	  14.8389000000	  47.7763000000
H	  13.9801000000	  15.8447000000	  47.2529000000
O	  16.6890000000	  13.1324000000	  41.4025000000
O	  15.0060000000	  13.2809000000	  43.0142000000
C	  17.1434000000	  12.3345000000	  42.4612000000
C	  15.8784000000	  12.2473000000	  43.3729000000
C	  15.3933000000	  13.5934000000	  41.6741000000
H	  17.4204000000	  11.3379000000	  42.2281000000
H	  17.8933000000	  12.9504000000	  43.0753000000
H	  15.4256000000	  11.2831000000	  43.1577000000
H	  16.1938000000	  12.2523000000	  44.4259000000
H	  15.3534000000	  14.6437000000	  41.4024000000
H	  14.8417000000	  13.0424000000	  40.9441000000
S	  15.3503000000	  16.1912000000	  44.1987000000
S	  13.6582000000	  17.3784000000	  43.8052000000
S	  12.1170000000	  17.1903000000	  45.2636000000
S	   7.5207400000	  16.5220000000	  45.0877000000
S	   6.6909600000	  18.3604000000	  44.7517000000
S	   7.8682600000	  19.9103000000	  45.4911000000
S	   9.1229000000	  16.1054000000	  43.8395000000
S	  10.9087000000	  15.5369000000	  44.8199000000
