28

Li	   3.8085000000	  27.6083000000	   7.6362600000
O	   0.8684255928	  28.3885000000	   9.8333900000
O	   2.2313800000	  28.2672000000	   8.1646500000
C	   1.3099700000	  29.7063000000	   9.7425600000
C	   2.2154900000	  29.6790000000	   8.4707200000
C	   1.0304800000	  27.7979000000	   8.6090900000
H	   0.4767255928	  30.3670000000	   9.5313200000
H	   1.8577800000	  30.0719000000	  10.6597000000
H	   1.7546800000	  30.3743000000	   7.7516600000
H	   3.1977800000	  30.0506000000	   8.8230300000
H	   0.9623255928	  26.7005000000	   8.7361600000
H	   0.3108255928	  28.1149000000	   7.9129300000
S	   4.2045000000	  26.2029000000	   5.9951800000
S	   3.7629000000	  26.4534000000	   3.9919600000
S	   2.6448200000	  28.1280000000	   3.5399200000
S	   5.1582300000	  30.8806000000	   6.5642800000
S	   6.6697100000	  32.2880000000	   6.6992900000
S	   8.4515300000	  31.7591000000	   5.7488900000
S	   3.9044700000	  31.1752000000	   4.8410700000
S	   3.9224300000	  29.7795000000	   3.2744500000
S	  -1.5778744072	  22.2688000000	  13.4594000000
S	   0.3206255928	  23.1161000000	  13.1844000000
S	   1.0331200000	  24.2984000000	  14.7807000000
S	   3.6567900000	  28.4041000000	  12.4179000000
S	   5.3203500000	  28.3598000000	  11.2154000000
S	   5.1084400000	  27.5536000000	   9.3221800000
S	   3.3214500000	  26.6972000000	  13.6753000000
S	   1.3180300000	  26.3040000000	  14.2060000000
