28

Li	  43.3689000000	  42.7662000000	  43.9661000000
O	  42.8531000000	  45.0669000000	  47.2496000000
O	  42.8551000000	  43.9811000000	  45.2996000000
C	  43.7694000000	  45.7923000000	  46.3638000000
C	  43.4964000000	  45.2317000000	  45.0225000000
C	  42.3464000000	  43.9454000000	  46.5212000000
H	  43.6557000000	  46.8800000000	  46.5476000000
H	  44.8055000000	  45.4766000000	  46.6507000000
H	  42.7446000000	  45.7897000000	  44.5222000000
H	  44.3481000000	  45.1178000000	  44.3525000000
H	  42.6722000000	  42.9520000000	  46.9812000000
H	  41.2098000000	  43.8638000000	  46.4835000000
S	  36.8625000000	  42.6421000000	  48.1621000000
S	  38.0035000000	  42.1775000000	  49.8474000000
S	  40.0865000000	  42.8066000000	  49.6080000000
S	  44.3844000000	  41.5266000000	  48.1876000000
S	  45.4162000000	  40.6941000000	  46.5025000000
S	  45.0643000000	  41.5989000000	  44.6656000000
S	  42.5689000000	  40.5670000000	  48.6446000000
S	  41.5213000000	  41.4381000000	  50.1999000000
S	  41.3632000000	  45.8774000000	  40.6158000000
S	  40.5248000000	  46.2400000000	  42.5851000000
S	  38.9067000000	  44.8889000000	  42.8689000000
S	  41.4683000000	  41.2859000000	  44.2327000000
S	  42.1960000000	  41.2543000000	  42.3561000000
S	  43.1276000000	  43.1257000000	  41.9120000000
S	  39.3600000000	  41.6255000000	  44.2376000000
S	  38.9191000000	  43.6717000000	  44.6288000000
