42

Li	   5.9937600000	  42.3209000000	   8.9529500000
O	   9.6820100000	  42.7148000000	   7.4189200000
O	   7.6291200000	  42.7137000000	   8.1711800000
C	   9.6760100000	  43.5729000000	   8.4872600000
C	   8.5171000000	  42.8628000000	   9.2851500000
C	   8.3783400000	  42.5813000000	   7.0571900000
H	  10.5654000000	  43.6360000000	   9.1067400000
H	   9.5052500000	  44.5527000000	   8.0808400000
H	   8.7568000000	  41.9447000000	   9.7632500000
H	   8.0475200000	  43.5479000000	   9.9606600000
H	   8.2220000000	  43.2636000000	   6.1837300000
H	   8.2387700000	  41.5731000000	   6.6465300000
N	   6.4439500000	  39.0699000000	   7.6075500000
S	   5.7588800000	  40.1161000000	   6.6602200000
O	   5.0792700000	  41.2228000000	   7.2852300000
O	   6.3752400000	  40.3844000000	   5.3409600000
C	   4.3508200000	  38.9809000000	   6.2110400000
F	   3.5073200000	  39.4685000000	   5.3213000000
F	   3.6442600000	  38.8049000000	   7.3054300000
F	   4.7524500000	  37.7707000000	   5.7703800000
S	   6.7546800000	  39.1503000000	   9.1577500000
O	   6.3536900000	  37.9080000000	   9.8065800000
O	   6.4522400000	  40.4588000000	   9.7419900000
C	   8.5533100000	  39.1106000000	   9.1352100000
F	   9.0747800000	  39.4153000000	  10.2911000000
F	   8.9647800000	  37.9254000000	   8.8298500000
F	   9.1620800000	  39.8797000000	   8.2189500000
N	   3.7502400000	  45.1921000000	   9.9795500000
S	   4.9850200000	  45.6716000000	   9.1958900000
O	   5.7739500000	  44.6057000000	   8.6840200000
O	   4.7061700000	  46.8350000000	   8.3348900000
C	   6.0300300000	  46.2746000000	  10.5405000000
F	   6.2453000000	  45.3295000000	  11.4339000000
F	   5.4127000000	  47.2414000000	  11.1915000000
F	   7.1896900000	  46.8277000000	  10.0573000000
S	   3.2915100000	  43.7251000000	  10.2353000000
O	   4.3660500000	  42.8150000000	  10.0736000000
O	   1.9840400000	  43.3678000000	   9.7302600000
C	   3.0284100000	  43.7352000000	  12.1063000000
F	   3.9178500000	  44.3593000000	  12.7950000000
F	   1.9367000000	  44.3304000000	  12.4019000000
F	   2.8179700000	  42.5452000000	  12.6867000000
