28

Li	  25.5593000000	  39.2684000000	   6.4905600000
O	  26.5323000000	  35.9706000000	   4.4915400000
O	  26.2813000000	  38.1651000000	   5.2069400000
C	  27.7078000000	  36.6929000000	   4.0813200000
C	  27.2466000000	  38.1602000000	   4.1716100000
C	  25.6846000000	  36.9014000000	   5.0227000000
H	  28.4552000000	  36.3858000000	   4.7912400000
H	  27.9069000000	  36.2790000000	   3.0882400000
H	  28.0895000000	  38.8596000000	   4.2905800000
H	  26.6846000000	  38.3907000000	   3.2969200000
H	  24.9165000000	  37.0917000000	   4.2241200000
H	  25.0636000000	  36.5971000000	   5.8514600000
S	  26.0157000000	  40.7724000000	   7.8682400000
S	  27.0308000000	  41.2349000000	   6.0110600000
S	  29.1153000000	  41.6441000000	   6.2854300000
S	  33.5738000000	  41.2934000000	   4.9079700000
S	  33.9103000000	  43.3705000000	   4.7118200000
S	  35.3648000000	  43.8160000000	   3.3133900000
S	  31.6966000000	  40.8325000000	   3.9017000000
S	  30.2436000000	  40.1832000000	   5.2898500000
S	  23.6377000000	  38.3181000000	   7.0523800000
S	  23.5302000000	  40.0777000000	   5.6550100000
S	  22.1191000000	  39.7923000000	   4.0894900000
S	  17.9027000000	  41.7719000000	   2.9242400000
S	  16.9673000000	  43.6384000000	   2.4149700000
S	  15.1332000000	  44.1806000000	   3.3865600000
S	  19.5110000000	  42.1616000000	   4.2328600000
S	  21.4446000000	  41.6970000000	   3.3747100000
