35

Li	  22.5716000000	  43.0008000000	  21.0065000000
O	  20.4897000000	  46.3248000000	  21.9793000000
O	  22.1533000000	  44.8626000000	  21.3915000000
C	  21.6112000000	  47.0784000000	  21.6561000000
C	  22.4578000000	  46.1057000000	  20.8359000000
C	  20.8434000000	  45.0351000000	  21.8318000000
H	  21.3972000000	  47.9497000000	  21.1020000000
H	  22.0388000000	  47.2806000000	  22.6202000000
H	  22.1201000000	  46.1009000000	  19.8611000000
H	  23.4775000000	  46.3965000000	  20.8279000000
H	  20.8020000000	  44.7147000000	  22.8321000000
H	  20.0907000000	  44.5248000000	  21.2451000000
N	  24.8322000000	  45.2676000000	  18.4197000000
S	  24.9717000000	  45.8115000000	  16.9944000000
O	  25.8794000000	  46.9410000000	  16.9048000000
O	  25.0852000000	  44.7882000000	  16.0056000000
C	  23.3382000000	  46.4024000000	  16.6705000000
F	  23.1616000000	  46.8485000000	  15.4721000000
F	  23.0441000000	  47.5081000000	  17.4681000000
F	  22.4016000000	  45.4846000000	  16.9483000000
S	  25.0299000000	  43.7961000000	  18.8292000000
O	  25.7280000000	  42.9462000000	  17.9300000000
O	  23.8667000000	  43.2591000000	  19.5649000000
C	  26.2341000000	  44.1446000000	  20.1568000000
F	  25.8754000000	  45.1887000000	  20.8901000000
F	  26.3017000000	  43.1189000000	  20.9920000000
F	  27.4721000000	  44.3597000000	  19.7098000000
S	  25.1282000000	  42.1199000000	  14.4155000000
S	  23.6793000000	  41.8025000000	  15.9952000000
S	  23.6985000000	  39.9228000000	  16.7749000000
S	  21.1334000000	  41.5258000000	  20.4324000000
S	  21.6685000000	  41.7208000000	  22.5156000000
S	  23.5486000000	  42.6480000000	  22.8017000000
S	  21.7532000000	  39.6238000000	  19.7370000000
S	  23.7054000000	  39.8650000000	  18.8671000000
