35

Li	  23.6864000000	  42.6590000000	  20.8942000000
O	  22.2157000000	  41.7196000000	  20.9588000000
O	  20.3799000000	  41.5301000000	  19.7280000000
C	  21.1896000000	  41.6010000000	  21.8660000000
C	  19.9145000000	  41.8131000000	  21.0825000000
C	  21.6798000000	  41.0816000000	  19.8600000000
H	  21.3356000000	  40.5852000000	  22.2670000000
H	  21.3683000000	  42.3086000000	  22.6458000000
H	  19.2198000000	  41.1507000000	  21.5267000000
H	  19.5692000000	  42.8621000000	  21.1049000000
H	  22.3032000000	  41.2704000000	  18.9877000000
H	  21.7428000000	  40.0153000000	  20.0856000000
N	  21.4026000000	  44.3583000000	  17.7463000000
S	  20.4099000000	  43.7372000000	  16.6742000000
O	  20.6777000000	  43.9549000000	  15.3187000000
O	  19.7489000000	  42.4862000000	  16.9822000000
C	  18.9958000000	  44.8608000000	  16.9666000000
F	  19.2718000000	  46.0991000000	  16.6753000000
F	  18.4796000000	  44.7536000000	  18.1738000000
F	  17.9864000000	  44.5104000000	  16.2117000000
S	  22.9191000000	  44.2984000000	  17.8222000000
O	  23.6547000000	  44.0984000000	  16.5815000000
O	  23.4140000000	  43.5111000000	  18.9639000000
C	  23.2980000000	  46.0125000000	  18.2683000000
F	  22.9101000000	  46.3885000000	  19.4607000000
F	  24.5673000000	  46.2215000000	  18.2626000000
F	  22.7109000000	  46.9239000000	  17.4563000000
S	  22.6802000000	  41.5051000000	  13.7468000000
S	  22.3751000000	  40.8356000000	  15.7581000000
S	  24.0533000000	  39.7951000000	  16.5525000000
S	  24.8167000000	  40.2970000000	  21.2687000000
S	  25.8035000000	  41.8573000000	  22.2280000000
S	  24.5511000000	  43.6302000000	  22.4697000000
S	  25.8738000000	  39.8643000000	  19.5750000000
S	  25.3815000000	  40.9414000000	  17.8988000000
