42

Li	  14.9146000000	   7.5556900000	  10.0789000000
O	  15.9799000000	   8.9991000000	   9.6155400000
O	  16.1641000000	  10.1945000000	   7.6593200000
C	  17.2321000000	   8.5558800000	   9.1055400000
C	  17.2911000000	   9.2345200000	   7.7949500000
C	  15.6871000000	  10.2178000000	   8.9521600000
H	  18.1172000000	   8.8942700000	   9.7194700000
H	  17.2952000000	   7.4565600000	   8.9628700000
H	  18.1253000000	   9.8598300000	   7.7511700000
H	  17.3573000000	   8.4647400000	   6.9648400000
H	  14.6012000000	  10.4270000000	   8.9364200000
H	  16.2685000000	  10.9577000000	   9.4746900000
N	  12.3394000000	   9.5914000000	   6.7888600000
S	  13.3337000000	   9.8008300000	   5.5954200000
O	  14.1074000000	  11.0075000000	   5.6714000000
O	  14.0503000000	   8.5915600000	   5.3319700000
C	  12.2017000000	  10.0889000000	   4.1446400000
F	  11.5811000000	  11.2931000000	   4.1430400000
F	  11.2264000000	   9.2183200000	   3.9956600000
F	  12.8387000000	  10.1566000000	   3.0302400000
S	  12.1685000000	   8.4040500000	   7.8078900000
O	  13.3030000000	   8.3166800000	   8.6779200000
O	  11.6077000000	   7.2933600000	   7.0541600000
C	  10.7689000000	   9.0981500000	   8.8789000000
F	   9.7108800000	   9.6101600000	   8.1791700000
F	  10.2363000000	   8.2669100000	   9.8011800000
F	  11.3233000000	  10.1517000000	   9.5775000000
N	  14.1719000000	   3.9009500000	   8.1602400000
S	  15.4115000000	   4.7504000000	   8.3371000000
O	  15.1679000000	   6.0400200000	   8.9673700000
O	  16.6448000000	   4.0024300000	   8.5569500000
C	  15.6177000000	   5.3429400000	   6.6625000000
F	  14.5392000000	   6.0899200000	   6.2799000000
F	  15.6221000000	   4.3575600000	   5.8080700000
F	  16.6733000000	   6.1150600000	   6.4583900000
S	  12.8928000000	   3.9220400000	   9.1385500000
O	  11.7610000000	   4.6465000000	   8.5934700000
O	  13.1367000000	   4.0250200000	  10.5979000000
C	  12.2952000000	   2.2094100000	   8.9230400000
F	  12.1786000000	   1.7959300000	   7.6462900000
F	  13.2100000000	   1.4732500000	   9.5691200000
F	  11.1001000000	   2.0389300000	   9.5105000000
