28

Li	  51.2424000000	  26.3392000000	  34.5575000000
O	  51.5118000000	  25.1256000000	  36.0540000000
O	  50.6626000000	  23.8261000000	  37.6425000000
C	  52.2935000000	  23.9650000000	  35.9804000000
C	  51.2828000000	  23.0124000000	  36.6737000000
C	  50.7658000000	  25.1247000000	  37.1914000000
H	  52.4832000000	  23.5132000000	  34.9582000000
H	  53.2449000000	  24.0470000000	  36.5311000000
H	  50.4595000000	  22.6653000000	  36.0155000000
H	  51.7725000000	  22.1426000000	  37.0793000000
H	  51.3935000000	  25.7114000000	  37.9460000000
H	  49.8230000000	  25.6224000000	  37.0407000000
S	  52.8457000000	  26.0821000000	  33.2702000000
S	  54.6190000000	  26.9407000000	  34.1398000000
S	  55.0187000000	  26.4058000000	  36.1008000000
S	  55.9014000000	  30.8409000000	  38.5116000000
S	  54.6627000000	  31.9626000000	  39.8969000000
S	  52.8187000000	  32.6860000000	  39.1237000000
S	  55.7676000000	  28.7642000000	  38.8140000000
S	  54.3355000000	  27.9016000000	  37.4936000000
S	  51.1806000000	  28.4053000000	  35.4423000000
S	  49.2728000000	  28.0917000000	  34.8016000000
S	  49.1812000000	  26.8460000000	  32.9961000000
S	  48.6233000000	  22.5986000000	  30.8084000000
S	  48.9046000000	  23.1927000000	  28.6463000000
S	  47.2080000000	  22.7511000000	  27.5754000000
S	  49.8647000000	  23.6245000000	  32.0848000000
S	  48.7902000000	  24.8066000000	  33.4654000000
