39

Li	  24.0228000000	  43.0570000000	  18.8250000000
N	  27.3395000000	  45.2407000000	  19.7008000000
S	  28.6320000000	  45.5347000000	  20.5920000000
O	  28.3902000000	  45.3439000000	  22.0132000000
O	  29.8191000000	  45.0652000000	  20.0143000000
C	  28.8018000000	  47.3744000000	  20.4092000000
F	  27.6139000000	  47.8948000000	  20.7599000000
F	  29.1333000000	  47.7677000000	  19.2025000000
F	  29.7075000000	  47.8028000000	  21.2775000000
S	  27.1479000000	  44.1192000000	  18.5883000000
O	  25.7596000000	  43.8888000000	  18.3159000000
O	  28.1629000000	  43.0571000000	  18.5381000000
C	  27.5378000000	  45.2083000000	  17.0605000000
F	  27.1696000000	  44.5874000000	  16.0007000000
F	  26.9173000000	  46.4497000000	  16.9594000000
F	  28.8265000000	  45.5156000000	  16.9884000000
N	  21.1166000000	  43.7908000000	  15.8825000000
S	  20.0367000000	  42.9724000000	  15.1225000000
O	  20.4971000000	  42.4042000000	  13.8648000000
O	  19.2302000000	  42.2132000000	  16.0574000000
C	  18.9330000000	  44.3372000000	  14.4986000000
F	  19.5889000000	  45.0762000000	  13.6160000000
F	  18.4842000000	  45.1074000000	  15.5188000000
F	  17.8424000000	  43.8752000000	  13.8724000000
S	  22.6450000000	  43.8650000000	  15.7666000000
O	  23.2418000000	  43.5884000000	  14.4573000000
O	  23.3422000000	  43.3893000000	  16.9226000000
C	  22.8406000000	  45.7154000000	  15.7879000000
F	  22.0508000000	  46.2859000000	  16.6992000000
F	  24.0373000000	  46.0396000000	  16.0681000000
F	  22.4897000000	  46.3091000000	  14.6717000000
S	  23.0959000000	  40.7205000000	  11.7489000000
S	  22.7634000000	  40.2227000000	  13.7672000000
S	  24.5560000000	  39.3641000000	  14.6092000000
S	  24.2643000000	  39.9628000000	  19.5213000000
S	  24.8510000000	  41.5701000000	  20.8853000000
S	  23.5567000000	  43.3376000000	  20.9967000000
S	  25.7192000000	  39.6296000000	  17.9856000000
S	  25.4394000000	  40.5205000000	  16.1813000000
