68

Li	  16.8800000000	  27.2299000000	   6.6574000000
O	  16.2012000000	  27.9404000000	   4.9869500000
O	  15.6690000000	  29.2472000000	   3.2774700000
C	  15.4311000000	  27.1234000000	   4.1484200000
C	  15.6009000000	  27.9121000000	   2.8889400000
C	  16.0019000000	  29.2453000000	   4.6417300000
H	  15.8260000000	  26.0859000000	   4.0414800000
H	  14.3619000000	  27.0625000000	   4.3848500000
H	  16.4997000000	  27.6108000000	   2.3644300000
H	  14.7428000000	  27.7929000000	   2.1630300000
H	  15.2686000000	  29.8563000000	   5.1577200000
H	  16.8820000000	  29.8256000000	   4.7372800000
O	  18.5307000000	  28.3096000000	   6.8406600000
O	  20.0417000000	  29.7941000000	   7.3031900000
C	  19.4327000000	  28.1389000000	   5.7894500000
C	  20.2906000000	  29.4231000000	   5.8967100000
C	  19.3049000000	  28.7510000000	   7.9036100000
H	  20.0318000000	  27.2278000000	   5.9134200000
H	  18.9365000000	  28.0212000000	   4.8163600000
H	  21.2617000000	  29.1433000000	   5.6318600000
H	  19.8281000000	  30.0612000000	   5.2108500000
H	  18.7493000000	  29.0880000000	   8.7724700000
H	  20.0205000000	  27.9971000000	   8.2559800000
N	  14.1262000000	  25.4674000000	   9.2656300000
S	  15.3216000000	  25.7174000000	  10.2420000000
O	  15.7409000000	  24.4209000000	  10.7871000000
O	  16.3338000000	  26.6840000000	   9.7914700000
C	  14.5179000000	  26.5784000000	  11.6634000000
F	  13.7035000000	  25.7676000000	  12.3484000000
F	  13.7642000000	  27.6010000000	  11.3257000000
F	  15.4425000000	  27.0411000000	  12.5055000000
S	  13.8420000000	  26.0749000000	   7.8590700000
O	  14.9766000000	  26.6482000000	   7.1455000000
O	  12.6000000000	  26.8126000000	   7.7652300000
C	  13.5387000000	  24.5589000000	   7.0110100000
F	  12.4540000000	  24.0053000000	   7.4589600000
F	  13.3678000000	  24.7776000000	   5.7090000000
F	  14.4798000000	  23.5898000000	   7.0744100000
N	  16.5129000000	  31.7025000000	   7.6147000000
S	  16.2365000000	  30.3949000000	   8.4468700000
O	  16.2538000000	  29.1821000000	   7.7199100000
O	  16.8433000000	  30.3964000000	   9.7205700000
C	  14.4649000000	  30.5120000000	   8.7913200000
F	  14.1436000000	  31.6186000000	   9.3764400000
F	  14.0248000000	  29.5073000000	   9.5351500000
F	  13.7800000000	  30.4207000000	   7.6485800000
S	  17.4890000000	  32.8183000000	   7.8954200000
O	  18.7296000000	  32.2646000000	   8.4377200000
O	  17.0501000000	  34.1056000000	   8.3833900000
C	  17.9377000000	  33.1795000000	   6.1410700000
F	  18.3083000000	  32.0559000000	   5.5653500000
F	  17.0071000000	  33.7515000000	   5.4574400000
F	  18.9261000000	  34.0734000000	   6.0491200000
N	  19.0567000000	  25.5473000000	   8.4557200000
S	  18.2466000000	  24.5972000000	   7.5185600000
O	  17.6926000000	  23.4216000000	   8.1399700000
O	  17.4855000000	  25.3906000000	   6.5898700000
C	  19.6012000000	  23.9862000000	   6.4292200000
F	  19.2764000000	  22.9037000000	   5.6970500000
F	  20.6760000000	  23.6909000000	   7.1024400000
F	  19.9525000000	  24.8853000000	   5.5417200000
S	  19.1864000000	  25.4615000000	  10.0316000000
O	  18.4444000000	  24.3675000000	  10.6564000000
O	  19.1831000000	  26.7963000000	  10.6226000000
C	  20.9316000000	  24.9773000000	  10.1922000000
F	  21.3844000000	  25.3063000000	  11.3703000000
F	  20.9743000000	  23.6810000000	  10.0386000000
F	  21.7970000000	  25.5010000000	   9.3189600000
