46

Li	  22.6147000000	  33.1586000000	  16.0707000000
O	  24.3065000000	  32.5966000000	  15.8010000000
O	  26.5488000000	  32.2594000000	  15.9006000000
C	  24.7236000000	  31.9823000000	  14.5743000000
C	  26.0086000000	  31.2794000000	  15.0145000000
C	  25.4553000000	  32.7735000000	  16.5150000000
H	  23.9412000000	  31.3467000000	  14.3167000000
H	  24.8094000000	  32.6787000000	  13.7768000000
H	  25.6864000000	  30.3803000000	  15.5867000000
H	  26.7533000000	  31.0103000000	  14.2988000000
H	  25.5364000000	  33.7985000000	  16.7191000000
H	  25.3942000000	  32.3332000000	  17.5047000000
O	  21.7015000000	  33.8536000000	  14.2218000000
O	  20.6518000000	  34.9595000000	  12.4664000000
C	  20.7218000000	  32.9975000000	  13.7151000000
C	  20.3965000000	  33.5806000000	  12.3907000000
C	  21.7567000000	  34.9441000000	  13.3457000000
H	  21.1419000000	  32.0044000000	  13.6591000000
H	  19.8778000000	  33.0357000000	  14.4682000000
H	  21.0543000000	  33.2295000000	  11.6305000000
H	  19.3921000000	  33.3410000000	  12.0419000000
H	  21.7802000000	  35.9243000000	  13.7871000000
H	  22.7333000000	  34.7163000000	  12.9097000000
N	  22.1048000000	  29.5065000000	  18.5588000000
S	  22.5849000000	  30.0713000000	  19.8968000000
O	  23.4704000000	  31.2532000000	  19.8617000000
O	  21.5932000000	  30.0133000000	  20.9946000000
C	  23.7613000000	  28.8054000000	  20.2662000000
F	  24.6819000000	  28.5919000000	  19.3025000000
F	  23.0968000000	  27.6538000000	  20.4776000000
F	  24.5719000000	  28.9540000000	  21.3324000000
S	  21.3252000000	  30.1877000000	  17.4746000000
O	  21.9997000000	  31.2565000000	  16.8512000000
O	  19.9391000000	  30.3474000000	  17.8125000000
C	  21.3074000000	  28.9023000000	  16.2118000000
F	  20.4678000000	  29.3114000000	  15.2639000000
F	  22.4824000000	  28.6900000000	  15.6221000000
F	  20.9918000000	  27.6830000000	  16.6239000000
S	  23.1077000000	  33.9737000000	  18.2739000000
S	  21.5501000000	  34.8342000000	  17.1909000000
S	  19.6872000000	  34.8699000000	  18.1394000000
S	  15.2796000000	  34.3829000000	  16.9110000000
S	  13.8444000000	  32.8545000000	  16.6349000000
S	  12.0289000000	  33.3981000000	  15.7239000000
S	  17.0656000000	  33.9838000000	  15.9167000000
S	  18.4728000000	  33.4209000000	  17.3932000000
