20

Li	  40.9464000000	  45.4660000000	  40.2114000000
O	  39.5186000000	  44.7698000000	  36.3883000000
O	  40.0823000000	  44.9245000000	  38.5724000000
C	  39.2647000000	  43.5224000000	  36.8945000000
C	  39.9997000000	  43.5697000000	  38.2926000000
C	  39.5471000000	  45.5430000000	  37.5367000000
H	  38.1845000000	  43.2448000000	  37.0178000000
H	  39.6930000000	  42.7565000000	  36.2503000000
H	  39.3582000000	  43.1163000000	  39.0590000000
H	  41.0465000000	  43.2226000000	  38.2199000000
H	  40.1444000000	  46.4373000000	  37.2608000000
H	  38.6118000000	  46.0217000000	  37.7892000000
S	  40.9433000000	  47.6723000000	  39.8867000000
S	  39.4028000000	  47.3362000000	  41.3618000000
S	  38.4920000000	  45.4242000000	  41.1252000000
S	  41.7003000000	  42.6728000000	  42.7064000000
S	  42.9516000000	  42.7200000000	  41.0157000000
S	  43.0062000000	  44.7263000000	  40.2376000000
S	  39.7395000000	  42.4107000000	  42.1996000000
S	  38.8563000000	  44.2582000000	  42.8447000000
