39

Li	  45.5185000000	  49.3963000000	  43.4606000000
O	  46.5572000000	  52.7482000000	  45.9838000000
O	  45.5807000000	  51.3496000000	  44.5370000000
C	  45.1581000000	  52.6149000000	  46.2988000000
C	  44.6595000000	  52.4051000000	  44.8792000000
C	  46.7934000000	  51.9100000000	  44.9467000000
H	  44.9423000000	  51.6981000000	  46.8330000000
H	  44.9210000000	  53.5579000000	  46.8218000000
H	  43.5979000000	  52.1547000000	  44.8238000000
H	  44.7444000000	  53.3054000000	  44.2890000000
H	  47.0510000000	  52.5764000000	  44.1381000000
H	  47.6709000000	  51.2492000000	  45.0616000000
O	  46.6437000000	  48.3683000000	  44.8123000000
O	  47.6401000000	  46.6124000000	  45.7788000000
C	  46.2215000000	  48.3668000000	  46.1868000000
C	  46.9448000000	  47.1899000000	  46.9051000000
C	  47.8006000000	  47.6778000000	  44.8870000000
H	  46.5368000000	  49.3294000000	  46.6075000000
H	  45.1548000000	  48.1978000000	  46.3080000000
H	  47.6453000000	  47.5744000000	  47.6772000000
H	  46.3661000000	  46.4488000000	  47.4184000000
H	  48.0477000000	  47.4249000000	  43.9295000000
H	  48.5599000000	  48.3735000000	  45.2806000000
S	  47.1990000000	  49.8920000000	  42.1640000000
S	  45.7685000000	  50.4931000000	  40.7631000000
S	  44.9910000000	  52.3773000000	  41.3284000000
S	  49.1542000000	  53.8663000000	  41.2699000000
S	  49.6123000000	  52.5189000000	  42.8348000000
S	  50.8046000000	  50.8417000000	  42.1840000000
S	  47.3172000000	  54.8562000000	  41.6439000000
S	  45.9476000000	  54.0173000000	  40.3876000000
S	  42.5368000000	  46.5064000000	  34.8535000000
S	  44.5312000000	  47.3135000000	  35.0790000000
S	  45.6778000000	  46.3816000000	  36.4495000000
S	  43.8871000000	  46.7588000000	  41.1602000000
S	  44.4648000000	  47.4708000000	  43.0223000000
S	  43.4245000000	  49.3062000000	  43.4992000000
S	  45.5040000000	  46.0942000000	  39.8950000000
S	  45.7282000000	  47.3130000000	  38.2292000000
