39

Li	   9.8754300000	  45.7063000000	  23.5590000000
N	  12.8304000000	  46.9548000000	  21.5584000000
S	  12.3212000000	  45.4890000000	  21.3983000000
O	  11.1148000000	  45.1810000000	  22.1468000000
O	  12.5157000000	  44.8819000000	  20.0952000000
C	  13.6130000000	  44.5813000000	  22.2879000000
F	  14.7781000000	  44.8289000000	  21.6987000000
F	  13.5314000000	  43.2611000000	  22.3782000000
F	  13.6339000000	  45.0116000000	  23.5531000000
S	  12.5187000000	  48.0543000000	  22.6751000000
O	  13.7345000000	  48.5070000000	  23.3593000000
O	  11.2642000000	  47.7192000000	  23.4072000000
C	  12.0393000000	  49.4636000000	  21.6516000000
F	  10.8431000000	  49.3599000000	  21.2233000000
F	  12.2027000000	  50.5973000000	  22.2274000000
F	  12.7821000000	  49.5932000000	  20.5925000000
N	  10.4086000000	  44.7495000000	  27.3983000000
S	   9.0234500000	  44.0788000000	  27.3231000000
O	   8.4256000000	  44.2314000000	  25.9701000000
O	   8.9703200000	  42.8082000000	  27.9671000000
C	   8.1206800000	  45.3032000000	  28.3473000000
F	   6.7804900000	  45.1132000000	  28.2853000000
F	   8.2175200000	  46.5529000000	  27.8761000000
F	   8.5776700000	  45.3191000000	  29.6131000000
S	  11.4045000000	  44.8949000000	  26.2253000000
O	  10.8076000000	  45.1383000000	  24.9360000000
O	  12.4866000000	  43.9292000000	  26.3398000000
C	  12.1671000000	  46.4735000000	  26.6100000000
F	  12.7182000000	  46.6395000000	  27.7902000000
F	  13.1174000000	  46.6995000000	  25.7346000000
F	  11.2493000000	  47.5145000000	  26.5006000000
S	   7.9037600000	  45.6648000000	  22.9524000000
S	   8.3950100000	  47.4643000000	  22.1243000000
S	   7.3875300000	  47.6763000000	  20.3355000000
S	   3.1102300000	  45.8595000000	  21.6403000000
S	   1.0784600000	  45.5628000000	  21.0551000000
S	   0.6175255928	  43.5796000000	  20.5289000000
S	   4.0090100000	  46.8239000000	  20.0437000000
S	   5.4083300000	  48.3453000000	  20.5133000000
