50

Li	  58.3240000000	  33.5080000000	  17.1966000000
O	  58.6118000000	  34.1356000000	  21.2374000000
O	  58.4606000000	  34.4483000000	  18.9976000000
C	  57.2535000000	  34.2104000000	  20.9183000000
C	  57.1740000000	  34.7437000000	  19.4943000000
C	  59.2276844072	  34.6383000000	  20.1319000000
H	  56.9208000000	  33.2101000000	  20.9078000000
H	  56.6496000000	  34.8524000000	  21.5124000000
H	  56.3977000000	  34.3253000000	  18.7649000000
H	  56.9421000000	  35.7882000000	  19.5787000000
H	  59.5379544072	  35.6753000000	  20.2303000000
H	  60.1673644072	  34.1581000000	  19.8609000000
N	  55.6255000000	  36.9889000000	  17.0787000000
S	  56.8052000000	  36.5244000000	  16.1907000000
O	  57.3298000000	  35.2442000000	  16.5935000000
O	  56.7728000000	  36.9031000000	  14.7791000000
C	  58.0451000000	  37.7111000000	  16.8573000000
F	  58.3075000000	  37.4175000000	  18.1120000000
F	  57.5128000000	  38.9780000000	  16.8804000000
F	  59.1416344072	  37.7611000000	  16.1486000000
S	  54.2955000000	  36.2252000000	  17.3854000000
O	  53.6957000000	  36.5426000000	  18.6033000000
O	  54.3832000000	  34.8441000000	  16.9566000000
C	  53.0997000000	  36.8639000000	  16.2116000000
F	  52.8486000000	  38.0760000000	  16.3613000000
F	  53.5851000000	  36.6907000000	  14.9564000000
F	  51.9904000000	  36.2594000000	  16.3145000000
N	  55.0855000000	  31.9268000000	  18.9793000000
S	  55.8816000000	  31.4848000000	  17.6777000000
O	  55.0232000000	  31.1894000000	  16.5539000000
O	  57.0156000000	  32.2860000000	  17.3684000000
C	  56.6681000000	  29.9494000000	  18.2537000000
F	  57.1365000000	  30.0694000000	  19.5074000000
F	  57.7377000000	  29.5479000000	  17.5814000000
F	  55.8076000000	  28.9414000000	  18.1264000000
S	  53.5694000000	  32.1900000000	  19.1971000000
O	  52.7531000000	  32.3665000000	  18.0366000000
O	  53.3793000000	  33.2098000000	  20.2036000000
C	  52.9811000000	  30.7020000000	  20.0977000000
F	  51.7153000000	  30.8287000000	  20.5469000000
F	  52.8823000000	  29.6496000000	  19.3559000000
F	  53.6899000000	  30.3555000000	  21.0760000000
S	  59.6533944072	  33.5009000000	  15.6547000000
S	  60.5534944072	  32.5622000000	  17.3084000000
S	  60.9132944072	  30.4633000000	  17.0799000000
S	  66.2651144072	  30.6951000000	  15.9973000000
S	  66.7067144072	  32.5194000000	  15.0474000000
S	  66.6755544072	  34.0546000000	  16.4614000000
S	  64.2213644072	  30.0316000000	  15.7928000000
S	  62.9407544072	  30.1489000000	  17.5351000000
