35

Li	  22.0952000000	  34.8039000000	   9.2063200000
O	  21.2827000000	  37.1526000000	  11.7899000000
O	  22.3202000000	  36.5647000000	   9.9467800000
C	  22.6977000000	  37.1242000000	  12.1295000000
C	  23.3173000000	  37.2331000000	  10.7135000000
C	  21.1527000000	  37.1218000000	  10.4092000000
H	  23.0486000000	  37.8711000000	  12.7698000000
H	  22.8921000000	  36.1829000000	  12.5943000000
H	  23.2424000000	  38.2434000000	  10.4407000000
H	  24.2729000000	  36.8194000000	  10.5127000000
H	  20.3495000000	  36.4551000000	  10.1812000000
H	  21.0400000000	  38.0732000000	   9.8907600000
N	  22.9560000000	  34.2550000000	   5.8937900000
S	  23.9235000000	  33.7304000000	   7.0366800000
O	  23.5423000000	  34.2598000000	   8.3066700000
O	  24.2607000000	  32.3132000000	   6.9142500000
C	  25.5215000000	  34.5698000000	   6.6193600000
F	  25.8616000000	  34.4035000000	   5.3594000000
F	  26.5077000000	  34.1509000000	   7.4243300000
F	  25.4684000000	  35.8850000000	   6.6909200000
S	  21.4895000000	  34.7226000000	   6.0409000000
O	  21.1406000000	  35.1887000000	   7.3642500000
O	  20.5631000000	  33.9237000000	   5.3462800000
C	  21.4893000000	  36.2899000000	   5.0721300000
F	  20.2524000000	  36.7996000000	   4.9118100000
F	  22.1377000000	  37.2222000000	   5.6477900000
F	  21.9696000000	  36.0978000000	   3.8302000000
S	  30.2965000000	  36.4762000000	  14.0963000000
S	  28.3569000000	  36.3579000000	  13.3295000000
S	  28.1006000000	  34.4183000000	  12.4609000000
S	  23.3269000000	  32.3913000000	  12.6515000000
S	  22.4634000000	  32.0020000000	  10.7871000000
S	  20.9422000000	  33.3553000000	  10.2681000000
S	  24.6929000000	  33.9587000000	  12.4239000000
S	  26.4818000000	  33.3443000000	  13.3628000000
