43

Li	   6.7625800000	  31.1435000000	   9.7452400000
O	   6.2660400000	  32.9428000000	   9.6856000000
O	   5.9803000000	  35.1489000000	  10.0201000000
C	   6.4679900000	  33.5489000000	   8.3793700000
C	   5.9572500000	  34.9793000000	   8.6038200000
C	   6.4356900000	  33.9844000000	  10.5683000000
H	   7.4659400000	  33.3663000000	   8.0526000000
H	   5.8155500000	  33.0021000000	   7.6721100000
H	   6.4504600000	  35.6054000000	   7.9583100000
H	   4.9201900000	  35.0058000000	   8.3248000000
H	   5.9432100000	  33.7214000000	  11.4534000000
H	   7.5112500000	  34.0823000000	  10.8174000000
N	   9.5916300000	  28.5224000000	   9.6199900000
S	   8.4114600000	  27.5693000000	  10.0951000000
O	   8.1591500000	  27.6109000000	  11.5220000000
O	   7.3235900000	  27.3406000000	   9.1957300000
C	   9.3345600000	  26.0474000000	  10.0110000000
F	  10.4285000000	  26.0963000000	  10.7218000000
F	   9.7208600000	  25.7104000000	   8.7738400000
F	   8.7232400000	  25.0099000000	  10.5037000000
S	   9.6737200000	  29.8499000000	   8.8378700000
O	   8.4795600000	  30.5511000000	   9.1270600000
O	  10.1566000000	  29.8822000000	   7.4842500000
C	  10.9518000000	  30.6396000000	   9.8275200000
F	  12.1077000000	  30.1523000000	   9.5046200000
F	  11.0279000000	  31.9074000000	   9.7578900000
F	  10.7708000000	  30.3437000000	  11.0974000000
S	   5.7286900000	  29.9066000000	   8.1322200000
S	   5.6215000000	  30.0097000000	   6.0738600000
S	   7.5555900000	  30.3304000000	   5.2035300000
S	  10.7547000000	  33.3799000000	   3.5173500000
S	  12.0328000000	  31.6809000000	   3.5868700000
S	  12.9815000000	  31.3372000000	   1.7363500000
S	   9.2772700000	  33.2725000000	   4.9745900000
S	   7.6028000000	  32.2483000000	   4.3311100000
S	   1.4343700000	  25.3159000000	  16.6189000000
S	   3.5399800000	  25.2982000000	  16.6303000000
S	   4.4252300000	  26.9253000000	  17.6793000000
S	   3.8993800000	  30.0732000000	  13.9083000000
S	   5.1645600000	  31.3294000000	  12.7564000000
S	   6.4492500000	  30.1167000000	  11.6461000000
S	   4.5897200000	  29.9037000000	  15.8662000000
S	   5.5458800000	  28.0997000000	  16.4011000000
