43

Li	  52.8927000000	  53.1244000000	  41.0496000000
O	  54.1408000000	  53.2962000000	  39.4911000000
O	  55.6649000000	  53.5574000000	  37.8185000000
C	  55.2816000000	  53.7394000000	  40.1020000000
C	  55.9102000000	  54.4795000000	  38.8879000000
C	  54.5075000000	  52.9128000000	  38.1517000000
H	  55.1012000000	  54.3177000000	  41.0460000000
H	  55.8639000000	  52.8744000000	  40.3459000000
H	  55.4118000000	  55.4154000000	  38.8220000000
H	  56.9516000000	  54.7482000000	  39.0976000000
H	  54.6189000000	  51.8049000000	  37.9944000000
H	  53.6981000000	  53.2120000000	  37.4830000000
N	  50.4639000000	  56.6495000000	  40.6786000000
S	  51.9545000000	  56.4985000000	  41.1755000000
O	  52.3125000000	  57.3046000000	  42.3308000000
O	  52.4415000000	  55.1237000000	  41.1419000000
C	  52.8256000000	  57.3705000000	  39.8074000000
F	  52.3757000000	  58.6130000000	  39.4841000000
F	  52.8610000000	  56.6288000000	  38.7523000000
F	  54.0588000000	  57.5495000000	  40.1774000000
S	  49.2220000000	  57.1225000000	  41.4931000000
O	  49.4969000000	  57.3610000000	  42.8874000000
O	  47.9367000000	  56.4787000000	  41.1198000000
C	  49.0590000000	  58.8358000000	  40.8079000000
F	  48.0233000000	  59.3730754200	  41.4555000000
F	  50.1442000000	  59.6213354200	  40.9366000000
F	  48.7606000000	  58.7903000000	  39.5082000000
S	  48.1010000000	  50.5295000000	  39.6503000000
S	  47.0227000000	  50.3337000000	  37.8867000000
S	  46.1010000000	  52.0864000000	  37.4161000000
S	  50.4020000000	  54.0849000000	  37.9867000000
S	  50.6309000000	  53.2224000000	  39.8538000000
S	  51.8384000000	  51.5907000000	  39.7651000000
S	  48.4286000000	  54.7197000000	  37.6428000000
S	  47.3515000000	  53.3913000000	  36.3038000000
S	  53.3413000000	  52.9653000000	  43.1987000000
S	  51.3019000000	  52.2702000000	  43.1043000000
S	  49.8933000000	  53.8780000000	  43.1177000000
S	  45.9079000000	  55.7097000000	  45.3604000000
S	  44.9107000000	  56.3190000000	  43.5461000000
S	  45.6780000000	  58.0626000000	  42.7905000000
S	  47.0639000000	  53.9987000000	  45.3674000000
S	  49.1464000000	  54.3622000000	  45.0980000000
