43

Li	   4.3440000000	  36.8377000000	  24.2221000000
O	   8.3214500000	  38.0135000000	  24.1852000000
O	   6.2105700000	  37.3097000000	  23.9421000000
C	   8.3388400000	  36.8994000000	  23.2918000000
C	   6.9379100000	  36.8337000000	  22.7933000000
C	   7.1213500000	  37.8617000000	  24.8259000000
H	   9.0408400000	  37.0587000000	  22.4595000000
H	   8.6028500000	  35.9382000000	  23.7610000000
H	   6.8205800000	  37.5783000000	  22.0469000000
H	   6.7015100000	  35.8671000000	  22.4353000000
H	   7.2647300000	  37.1202000000	  25.6212000000
H	   6.6556600000	  38.7358000000	  25.3708000000
N	   3.4782400000	  40.0325000000	  27.4119000000
S	   4.8770100000	  40.6328000000	  26.9815000000
O	   6.0005900000	  40.2643000000	  27.8008000000
O	   5.0842800000	  40.7149000000	  25.5670000000
C	   4.5191800000	  42.3313000000	  27.4583000000
F	   4.2606100000	  42.4405000000	  28.7111000000
F	   3.4132500000	  42.7553000000	  26.8776000000
F	   5.5714600000	  43.1828000000	  27.2114000000
S	   2.8779100000	  38.6496000000	  26.9084000000
O	   2.2642800000	  37.7634000000	  27.8801000000
O	   3.7548200000	  38.0038000000	  25.9659000000
C	   1.4841700000	  39.2252000000	  25.8294000000
F	   0.5424255928	  39.7749000000	  26.5361000000
F	   1.8576300000	  40.1550000000	  24.9219000000
F	   1.0357000000	  38.2593000000	  25.0412000000
S	   4.4401100000	  34.9380000000	  25.2652000000
S	   4.2916100000	  34.1971000000	  23.2869000000
S	   5.1025300000	  32.2648000000	  23.1216000000
S	   9.6230700000	  30.4822000000	  23.8719000000
S	   9.3245900000	  29.6841000000	  25.8251000000
S	   8.1191800000	  27.9803000000	  26.0367000000
S	   8.6597500000	  32.3633000000	  23.5324000000
S	   7.0114700000	  32.2197000000	  22.2466000000
S	   7.8171300000	  37.0247000000	  14.9309000000
S	   7.8448900000	  39.1632000000	  15.3954000000
S	   8.4375400000	  39.6325000000	  17.4460000000
S	   4.1821300000	  39.6526000000	  20.9255000000
S	   3.9659400000	  38.6973000000	  22.8355000000
S	   2.6468800000	  37.1102000000	  22.9001000000
S	   5.8895300000	  38.8726000000	  19.9296000000
S	   6.7050600000	  40.2162000000	  18.5113000000
