61

Li	  58.7899000000	  21.9953000000	  32.9906000000
O	  59.1864744072	  23.0194000000	  34.6295000000
O	  58.5133000000	  24.0141000000	  36.3823000000
C	  60.3408044072	  23.5616000000	  35.1733000000
C	  59.8858644072	  24.2310000000	  36.4395000000
C	  58.4570000000	  22.7877000000	  35.7656000000
H	  61.0628644072	  22.7805000000	  35.4642000000
H	  60.8331644072	  24.2512000000	  34.3898000000
H	  60.3372144072	  23.7667000000	  37.3273000000
H	  60.0661244072	  25.3194000000	  36.4810000000
H	  57.4257000000	  22.5365000000	  35.4845000000
H	  58.8706000000	  22.0119000000	  36.4527000000
O	  56.4207000000	  25.6420000000	  31.9355000000
O	  58.0019000000	  24.0617000000	  32.2098000000
C	  57.4124000000	  26.0456000000	  31.0161000000
C	  58.3336000000	  24.7708000000	  31.0021000000
C	  57.0828000000	  24.8267000000	  32.9123000000
H	  57.0042000000	  26.4398000000	  30.0765000000
H	  57.9015000000	  26.8993000000	  31.4302000000
H	  57.9088000000	  24.0667000000	  30.3188000000
H	  59.3721944072	  25.0577000000	  30.8017000000
H	  57.6138000000	  25.4635000000	  33.6246000000
H	  56.4140000000	  24.2424000000	  33.5572000000
N	  59.3148944072	  17.8282000000	  32.9947000000
S	  58.9107000000	  18.7725000000	  34.1635000000
O	  58.7551000000	  20.1450000000	  33.7858000000
O	  57.9637000000	  18.2390000000	  35.1000000000
C	  60.4472244072	  18.8448000000	  35.1625000000
F	  60.6713444072	  17.5247000000	  35.5131000000
F	  60.2841744072	  19.5235000000	  36.2894000000
F	  61.4387744072	  19.4392000000	  34.4839000000
S	  58.5911000000	  16.4800000000	  32.7291000000
O	  57.3183000000	  16.3496000000	  33.4190000000
O	  59.5325444072	  15.3991000000	  32.7547000000
C	  58.1372000000	  16.5251000000	  30.9027000000
F	  57.3542000000	  17.6062000000	  30.7046000000
F	  59.1639744072	  16.7220000000	  30.1068000000
F	  57.4081000000	  15.4811000000	  30.3916000000
N	  54.8886000000	  20.8465000000	  34.9056000000
S	  54.5072000000	  19.7560000000	  35.9845000000
O	  53.2791000000	  19.9517000000	  36.7410000000
O	  54.8116000000	  18.3928000000	  35.6341000000
C	  55.6837000000	  20.0737000000	  37.3647000000
F	  56.9680000000	  20.0919000000	  36.9024000000
F	  55.5742000000	  19.1969000000	  38.4048000000
F	  55.3793000000	  21.2408000000	  37.8552000000
S	  55.3994000000	  20.6653000000	  33.4117000000
O	  55.5235000000	  19.2902000000	  33.0121000000
O	  56.3859000000	  21.6338000000	  33.0221000000
C	  53.8080000000	  21.1567000000	  32.5876000000
F	  53.7506000000	  20.8725000000	  31.2568000000
F	  52.7196000000	  20.6217000000	  33.1912000000
F	  53.6175000000	  22.4810000000	  32.6950000000
S	  59.1007244072	  30.3653000000	  27.7300000000
S	  58.7774000000	  28.7151000000	  29.0474000000
S	  60.3041844072	  28.3938000000	  30.4245000000
S	  62.4688844072	  23.5227000000	  31.4366000000
S	  60.9706444072	  22.1535000000	  32.1306000000
S	  59.5714744072	  21.3257000000	  30.7887000000
S	  61.8345944072	  25.5650000000	  31.6791000000
S	  61.3709844072	  26.6650000000	  29.9718000000
