27

Li	  10.2920000000	  14.6815000000	  32.5696000000
O	   8.1469400000	  14.4578000000	  36.0575000000
O	   9.6484800000	  14.6847000000	  34.5199000000
C	   9.2645300000	  14.0954000000	  36.7260000000
C	  10.3643000000	  14.5560000000	  35.7019000000
C	   8.4045000000	  14.1779000000	  34.7692000000
H	   9.3266300000	  14.5805000000	  37.7105000000
H	   9.2676600000	  13.0052000000	  36.9303000000
H	  10.7687000000	  15.5001000000	  36.0506000000
H	  11.1924000000	  13.8018000000	  35.5463000000
H	   8.3427400000	  13.1532000000	  34.5627000000
H	   7.7766000000	  14.7064000000	  34.0840000000
N	   7.6368100000	  16.4297000000	  30.8226000000
S	   8.1377900000	  15.0847000000	  30.1464000000
O	   8.3924600000	  15.2697000000	  28.7724000000
O	   9.2261900000	  14.4850000000	  30.9581000000
C	   6.7561600000	  13.9233000000	  30.3422000000
F	   6.3774200000	  13.8232000000	  31.6064000000
F	   7.0635000000	  12.7367000000	  29.8772000000
F	   5.6839600000	  14.4128000000	  29.7113000000
S	   8.5080000000	  17.2411000000	  31.7070000000
O	   8.9648800000	  18.4843000000	  31.1039000000
O	   9.4863000000	  16.5050000000	  32.4723000000
C	   7.3299600000	  17.7368000000	  32.9532000000
F	   6.6886700000	  16.7188000000	  33.5297000000
F	   7.8642200000	  18.3670000000	  33.9538000000
F	   6.4601200000	  18.5726000000	  32.3358000000
