57

Li	  26.3458000000	  41.9787000000	   4.5185800000
O	  25.5850000000	  42.2970000000	   2.7716500000
O	  24.8696000000	  43.9126000000	   1.4558800000
C	  26.3600000000	  42.2136000000	   1.6173200000
C	  26.0949000000	  43.4559000000	   0.8824217430
C	  24.4096000000	  42.8880000000	   2.2221300000
H	  27.4164000000	  42.1670000000	   1.8761800000
H	  26.1563000000	  41.2931000000	   0.9914217430
H	  26.8492000000	  44.1533000000	   0.9067217430
H	  25.8643000000	  43.3976000000	  -0.1311782570
H	  23.8349000000	  42.1467000000	   1.6632400000
H	  23.8123000000	  43.2345000000	   3.0573800000
N	  29.1701000000	  40.0014000000	   5.2572200000
S	  27.9790000000	  39.0946000000	   4.7905800000
O	  27.8866000000	  37.8024000000	   5.5065200000
O	  26.7965000000	  39.8654000000	   4.4500500000
C	  28.6708000000	  38.4542000000	   3.1191800000
F	  28.7374000000	  39.4658000000	   2.2761300000
F	  27.9928000000	  37.4587000000	   2.5216600000
F	  29.9288000000	  38.0647000000	   3.1943700000
S	  30.1223000000	  39.7988000000	   6.4293000000
O	  30.2832000000	  38.4036000000	   6.8881200000
O	  30.1029000000	  40.8245000000	   7.4381600000
C	  31.7498000000	  40.2280000000	   5.5680700000
F	  31.8405000000	  41.4787000000	   5.2204000000
F	  32.7886000000	  39.9517000000	   6.2727800000
F	  31.9704000000	  39.4902000000	   4.4665600000
N	  26.9010000000	  45.4224000000	   5.8885000000
S	  28.0890000000	  44.5174000000	   5.6024500000
O	  29.1422000000	  44.5460000000	   6.5785500000
O	  27.6618000000	  43.2839000000	   5.0045400000
C	  28.9108000000	  45.3739000000	   4.1905600000
F	  28.9710000000	  46.6465000000	   4.4288700000
F	  28.1496000000	  45.2926000000	   3.0909600000
F	  30.0940000000	  44.9641000000	   3.9137800000
S	  26.4656000000	  46.2446000000	   7.0944100000
O	  26.9818000000	  47.5866000000	   6.8430600000
O	  26.4199000000	  45.7211000000	   8.4292700000
C	  24.6802000000	  46.4726000000	   6.7763000000
F	  24.3999000000	  47.7409000000	   6.3152700000
F	  24.1339000000	  45.5726000000	   5.9660200000
F	  24.0497000000	  46.3503000000	   7.8664800000
N	  24.6386000000	  40.7095000000	   7.8513600000
S	  25.6345000000	  39.5209000000	   7.8508600000
O	  25.2396000000	  38.3317000000	   7.1249700000
O	  27.0245000000	  39.9216000000	   7.7050400000
C	  25.5459000000	  39.0427000000	   9.5922000000
F	  24.4903000000	  38.2353000000	   9.7454800000
F	  25.3933000000	  40.0153000000	  10.4331000000
F	  26.5809000000	  38.4170000000	   9.9711700000
S	  24.6384000000	  42.0713000000	   7.1329000000
O	  24.9041000000	  42.0550000000	   5.7396900000
O	  24.9695000000	  43.2484000000	   7.9247400000
C	  22.8412000000	  42.2617000000	   6.9937400000
F	  22.4931000000	  43.4672000000	   6.5858900000
F	  22.2584000000	  41.3481000000	   6.1898400000
F	  22.2994000000	  42.1141000000	   8.1812700000
