32

Li	  23.3481000000	   6.9164600000	  37.5986000000
N	  19.9276000000	   7.2442600000	  36.1836000000
S	  20.1426000000	   6.3482800000	  37.4228000000
O	  19.3115000000	   5.1656200000	  37.2800000000
O	  21.5604000000	   6.2317000000	  37.6998000000
C	  19.4832000000	   7.2644500000	  38.8144000000
F	  19.5718000000	   6.5482000000	  39.9308000000
F	  18.2641000000	   7.6770600000	  38.6419000000
F	  20.2677000000	   8.3657100000	  38.9200000000
S	  20.9661000000	   8.0558700000	  35.3071000000
O	  22.4017000000	   7.8415100000	  35.4162000000
O	  20.4783000000	   9.4166900000	  35.2142000000
C	  20.5362000000	   7.3386600000	  33.7250000000
F	  19.3392000000	   7.5687100000	  33.2608000000
F	  21.3757000000	   7.8314700000	  32.8050000000
F	  20.6719000000	   6.0226700000	  33.7258000000
S	  25.0878000000	   6.0786200000	  36.8079000000
S	  25.9966000000	   6.0919500000	  34.9425000000
S	  24.5896000000	   6.1612600000	  33.3883000000
S	  24.5784000000	   2.0396600000	  30.0322000000
S	  25.6374000000	   0.9933064454	  28.5473000000
S	  25.2899000000	   1.4923500000	  26.4603000000
S	  25.4849000000	   3.6935600000	  31.0063000000
S	  24.3557000000	   4.1254600000	  32.6827000000
S	  24.1232000000	   8.2502600000	  39.1061000000
S	  24.4652000000	   7.4626500000	  40.9924000000
S	  26.1280000000	   8.4433000000	  41.8802000000
S	  29.3931000000	   5.2510700000	  43.8525000000
S	  29.1239000000	   5.2300600000	  45.9873000000
S	  31.0270000000	   5.5693100000	  46.9709000000
S	  29.3135000000	   7.1086300000	  43.1454000000
S	  27.9516000000	   7.2794700000	  41.5779000000
