31

Li	   7.7291100000	   6.6904000000	  49.4206000000
O	   7.3661600000	   9.4540200000	  46.5676000000
O	   8.0859700000	   8.1196700000	  48.2924000000
C	   7.1568600000	  10.1789000000	  47.8166000000
C	   8.1717200000	   9.4831600000	  48.7309000000
C	   8.0586600000	   8.2889000000	  46.8865000000
H	   7.2434600000	  11.2086000000	  47.5955000000
H	   6.1519500000	   9.9535600000	  48.2533000000
H	   9.1594800000	   9.9439000000	  48.6388000000
H	   7.8908300000	   9.6461300000	  49.8142000000
H	   7.6332100000	   7.4128800000	  46.4682000000
H	   9.0603700000	   8.3422100000	  46.4509000000
O	  11.4451000000	   5.6812700000	  49.7369000000
O	   9.2028600000	   5.5347300000	  49.6375000000
C	  11.1864000000	   4.3511700000	  49.3314000000
C	   9.6310900000	   4.3620700000	  49.1365000000
C	  10.3009000000	   6.0643400000	  50.3335000000
H	  11.8127000000	   4.3465100000	  48.5211000000
H	  11.5051000000	   3.5870000000	  50.0956000000
H	   9.4458300000	   4.3513600000	  48.0683000000
H	   9.1713800000	   3.4477700000	  49.5475000000
H	  10.1885000000	   5.6611800000	  51.3335000000
H	  10.2747000000	   7.0961700000	  50.4352000000
S	  -2.8818060053	   6.9812700000	  51.3315000000
S	  -1.4417060053	   5.4219700000	  51.2192000000
S	   0.5296939947	   6.2933100000	  51.1224000000
S	   4.9391200000	   6.3288300000	  48.8268000000
S	   5.6417600000	   5.7300100000	  50.7852000000
S	   7.1870700000	   7.0308100000	  51.3385000000
S	   3.1514400000	   7.5691300000	  49.0048000000
S	   1.3003600000	   6.4787400000	  49.1818000000
