38

Li	  25.0555000000	  12.3132000000	  32.2424000000
O	  24.6454000000	  13.9063000000	  31.2385000000
O	  23.8672000000	  14.7178000000	  29.3294000000
C	  24.1920000000	  15.2101000000	  31.6034000000
C	  23.6325000000	  15.6956000000	  30.2868000000
C	  24.8897000000	  13.9896000000	  29.8656000000
H	  23.4522000000	  15.2806000000	  32.3895000000
H	  25.1037000000	  15.7462000000	  31.8514000000
H	  22.5553000000	  15.9040000000	  30.3141000000
H	  24.1947000000	  16.5867000000	  29.7833000000
H	  25.9378000000	  14.4338000000	  29.6084000000
H	  24.9472000000	  13.0003000000	  29.3607000000
O	  24.6867000000	  12.8580000000	  33.9667000000
O	  24.5822000000	  12.0261000000	  36.0029000000
C	  24.9290000000	  13.9151000000	  34.8624000000
C	  24.9287000000	  13.3559000000	  36.2374000000
C	  25.0557000000	  11.7270000000	  34.7571000000
H	  25.9109000000	  14.4066000000	  34.7116000000
H	  24.2614000000	  14.6362000000	  34.6104000000
H	  25.8809000000	  13.2856000000	  36.7231000000
H	  24.3181000000	  13.8522000000	  36.9936000000
H	  24.5658000000	  10.8860000000	  34.2767000000
H	  26.1820000000	  11.5403000000	  34.7669000000
N	  21.7613000000	  10.7989000000	  30.3449000000
S	  21.3133000000	  12.2887000000	  30.6457000000
O	  21.6744000000	  12.8040000000	  31.9859000000
O	  21.7247000000	  13.0711000000	  29.4988000000
C	  19.5535000000	  12.1676000000	  30.6244000000
F	  19.1461000000	  11.0534000000	  31.2188000000
F	  19.0350000000	  12.1231000000	  29.4351000000
F	  18.9893000000	  13.1211000000	  31.2263000000
S	  23.1513000000	  10.1451000000	  30.5886000000
O	  24.0902000000	  10.8902000000	  31.4293000000
O	  23.6379000000	   9.4013800000	  29.4776000000
C	  22.6724000000	   8.7766600000	  31.7478000000
F	  22.0771000000	   9.2416000000	  32.8578000000
F	  21.7551000000	   8.0214600000	  31.2051000000
F	  23.6668000000	   8.0788400000	  32.1375000000
