43

Li	  26.8177000000	   6.0405200000	  40.3835000000
O	  26.0956000000	   3.9700800000	  43.9177000000
O	  26.0588000000	   5.1708000000	  42.0545000000
C	  26.9798000000	   5.0954000000	  44.1221000000
C	  26.3546000000	   5.9770600000	  43.0821000000
C	  25.5816000000	   4.0356900000	  42.6200000000
H	  26.9384000000	   5.3748400000	  45.1416000000
H	  27.9629000000	   4.7392700000	  43.9671000000
H	  25.4420000000	   6.3882400000	  43.4663000000
H	  26.8458000000	   6.9434800000	  42.8117000000
H	  25.9838000000	   3.1322400000	  42.0061000000
H	  24.4616000000	   3.9488400000	  42.6970000000
N	  24.3857000000	   9.3604000000	  40.9244000000
S	  24.3661000000	   8.1057900000	  40.0015000000
O	  23.8854000000	   8.3379100000	  38.6478000000
O	  25.4242000000	   7.2268200000	  40.1752000000
C	  23.0560000000	   7.2075500000	  40.8084000000
F	  22.5880000000	   6.2499000000	  40.0015000000
F	  22.0286000000	   7.9938700000	  41.0645000000
F	  23.4073000000	   6.5815100000	  41.8849000000
S	  24.7229000000	  10.7980000000	  40.4440000000
O	  24.4983000000	  11.0627000000	  39.0696000000
O	  25.8829000000	  11.3298000000	  41.1537000000
C	  23.3918000000	  11.7516000000	  41.2479000000
F	  23.2473000000	  11.3840000000	  42.5358000000
F	  23.6868000000	  13.0508000000	  41.3538000000
F	  22.1919000000	  11.6920000000	  40.6970000000
S	  26.8495000000	   4.6501400000	  38.7417000000
S	  27.1144000000	   2.6657200000	  39.5099000000
S	  29.2243000000	   2.0827800000	  39.5285000000
S	  29.7759000000	   1.9469800000	  44.4191000000
S	  27.8475000000	   1.4381700000	  45.1506000000
S	  27.8793000000	  -0.1911935546	  46.5221000000
S	  30.1661000000	   1.1801064454	  42.5780000000
S	  30.2988000000	   2.7035800000	  41.1838000000
S	  33.1592000000	  11.9107000000	  32.0804000000
S	  32.6202000000	  10.2732000000	  33.3777000000
S	  31.2620000000	  10.8515000000	  34.8192000000
S	  27.6502000000	   8.9245100000	  37.1741000000
S	  28.5256000000	   9.0286900000	  39.1011000000
S	  28.4972000000	   7.1554700000	  40.1854000000
S	  28.8757000000	   8.4073700000	  35.5040000000
S	  29.3820000000	  10.1034000000	  34.3363000000
