34

Li	  48.3981000000	  43.3976000000	   6.9097000000
O	  45.0298000000	  45.3044000000	   5.7396800000
O	  46.6730000000	  44.4577000000	   6.9160000000
C	  44.4327000000	  44.4173000000	   6.7134800000
C	  45.5226000000	  44.2521000000	   7.7426200000
C	  46.3805000000	  45.3702000000	   5.9653100000
H	  43.4683000000	  44.9361000000	   7.0773800000
H	  44.0490000000	  43.5012000000	   6.3016500000
H	  45.3670000000	  44.9544000000	   8.5040100000
H	  45.5441000000	  43.2379000000	   8.1615200000
H	  46.9347000000	  45.0937000000	   5.0077400000
H	  46.6360000000	  46.3077000000	   6.3516200000
O	  49.2064000000	  43.8293000000	   5.2073900000
O	  50.9651000000	  43.0260000000	   4.0198200000
C	  49.5800000000	  44.8525000000	   4.2961000000
C	  50.9448000000	  44.4358000000	   3.7003600000
C	  49.8042000000	  42.7212000000	   4.6486000000
H	  48.7834000000	  44.9806000000	   3.5586100000
H	  49.6401000000	  45.8124000000	   4.7728800000
H	  51.1507000000	  44.7688000000	   2.6493200000
H	  51.6693000000	  44.8564000000	   4.3976000000
H	  50.0509000000	  42.0359000000	   5.4358300000
H	  49.1779000000	  42.2476000000	   3.9833900000
O	  45.6212000000	  40.5508000000	   6.2921100000
O	  47.6101000000	  41.7393000000	   6.6369900000
C	  46.3679000000	  39.7915000000	   7.1801300000
C	  47.7770000000	  40.3579000000	   7.0800200000
C	  46.4963000000	  41.5704000000	   5.7885400000
H	  45.9486000000	  39.9248000000	   8.1212100000
H	  46.4147000000	  38.7029000000	   6.9512500000
H	  48.2151000000	  40.2914000000	   8.0690300000
H	  48.4385000000	  39.7897000000	   6.4620800000
H	  46.7701000000	  41.1719000000	   4.8088400000
H	  45.9964000000	  42.4784000000	   5.6386400000
