9

Li	  26.6426000000	  56.9758000000	  26.7089000000
S	  28.1599000000	  55.8184000000	  26.0890000000
S	  27.4845000000	  54.1329000000	  24.9622000000
S	  25.8965000000	  53.1867000000	  26.0056000000
S	  22.9001000000	  56.7312000000	  25.0540000000
S	  24.0768000000	  58.1029000000	  25.9480000000
S	  26.1327000000	  58.1844000000	  25.1322000000
S	  22.7617000000	  54.9311000000	  26.1503000000
S	  23.9683000000	  53.4095000000	  25.3190000000
