31

Li	  15.0666000000	  17.2076000000	  23.8689000000
N	  18.1938000000	  16.1522000000	  21.6695000000
S	  18.7316000000	  17.5508000000	  22.1336000000
O	  19.4297000000	  18.2835000000	  21.1193000000
O	  17.7538000000	  18.1728000000	  23.0250000000
C	  20.0621000000	  16.9992000000	  23.1989000000
F	  20.4248000000	  17.8982000000	  24.0601000000
F	  21.1684000000	  16.6295000000	  22.5213000000
F	  19.7617000000	  15.9247000000	  23.8792000000
S	  16.6744000000	  15.7188000000	  21.5517000000
O	  15.7322000000	  16.3641000000	  22.4261000000
O	  16.4432000000	  14.3128000000	  21.3756000000
C	  16.2287000000	  16.4669000000	  19.9586000000
F	  17.0946000000	  16.1209000000	  19.0287000000
F	  15.0115000000	  16.1201000000	  19.5498000000
F	  16.1867000000	  17.7929000000	  20.0359000000
N	  15.3782000000	  18.8439000000	  27.3814000000
S	  14.1301000000	  18.9386000000	  28.2928000000
O	  12.8382000000	  18.5842000000	  27.7623000000
O	  14.3574000000	  18.3840000000	  29.6192000000
C	  13.9528000000	  20.7396000000	  28.6533000000
F	  13.6651000000	  21.4560000000	  27.5878000000
F	  15.0238000000	  21.3053000000	  29.0914000000
F	  13.0300000000	  21.0228000000	  29.5514000000
S	  16.1577000000	  17.6144000000	  26.9327000000
O	  15.9293000000	  17.2658000000	  25.5558000000
O	  16.2034000000	  16.5057000000	  27.8516000000
C	  17.8874000000	  18.2329000000	  26.9746000000
F	  18.7573000000	  17.3610000000	  26.5357000000
F	  18.0851000000	  19.2976000000	  26.2490000000
F	  18.2230000000	  18.6175000000	  28.2043000000
