39

Li	  23.9712000000	   9.7380400000	   9.8374500000
N	  28.1260000000	   8.8011700000	  10.3469000000
S	  29.1546000000	   8.6800700000	  11.5621000000
O	  29.7626000000	   9.9026900000	  12.0579000000
O	  28.7496000000	   7.7729700000	  12.5527000000
C	  30.4968000000	   7.6798200000	  10.9393000000
F	  31.1611000000	   8.3144200000	   9.9906400000
F	  29.9081000000	   6.6038700000	  10.4199000000
F	  31.3831000000	   7.2639600000	  11.8397000000
S	  27.4943000000	  10.0992000000	   9.6932800000
O	  28.1828000000	  11.3644000000	   9.9866100000
O	  26.0369000000	  10.0840000000	   9.7324200000
C	  27.8502000000	   9.9052700000	   7.9191300000
F	  27.6704000000	  11.0413000000	   7.2843400000
F	  29.1671000000	   9.6773600000	   7.7935400000
F	  27.1692000000	   8.8944200000	   7.4235300000
N	  23.5160000000	  11.6868000000	   6.6972500000
S	  23.2395000000	  12.4528000000	   8.0485700000
O	  22.3171000000	  13.5246000000	   8.0335500000
O	  23.2832000000	  11.6352000000	   9.2255600000
C	  24.7927000000	  13.3889000000	   8.3043000000
F	  24.7711000000	  14.0791000000	   9.3893400000
F	  25.0538000000	  14.2580000000	   7.3628700000
F	  25.8464000000	  12.5912000000	   8.4647900000
S	  23.8469000000	  10.1204000000	   6.5264800000
O	  24.0364000000	   9.4339400000	   7.7921500000
O	  24.9021000000	   9.9115700000	   5.5528600000
C	  22.3514000000	   9.5214800000	   5.7362000000
F	  22.2066000000	  10.1803000000	   4.6271100000
F	  22.3074000000	   8.3016800000	   5.3749300000
F	  21.2864000000	   9.7823100000	   6.5568500000
S	  24.1030000000	   7.7714300000	  10.8256000000
S	  22.7518000000	   8.9362900000	  12.0982000000
S	  23.4107000000	  10.8841000000	  12.3030000000
S	  26.9058000000	  12.0854000000	  15.0444000000
S	  27.9125000000	  12.1088000000	  13.1879000000
S	  29.4289000000	  13.5729000000	  13.2311000000
S	  24.9475000000	  12.9887000000	  14.7273000000
S	  23.3735000000	  11.5759000000	  14.2653000000
