35

Li	   4.2344600000	  50.2378000000	  24.2997000000
O	   5.4085400000	  49.0888000000	  25.3956000000
O	   7.2789100000	  47.9623000000	  25.6129000000
C	   5.6870500000	  49.1170000000	  26.8229000000
C	   7.1225000000	  48.6531000000	  26.7871000000
C	   6.0030600000	  47.8987000000	  25.0496000000
H	   5.5303400000	  50.1310000000	  27.2811000000
H	   5.0592400000	  48.3333000000	  27.3045000000
H	   7.8701300000	  49.3641000000	  26.8109000000
H	   7.1324800000	  47.9490000000	  27.6435000000
H	   5.5238300000	  46.9473000000	  25.3629000000
H	   6.0284600000	  47.9544000000	  23.8793000000
N	   1.2743500000	  46.9850000000	  24.4388000000
S	   1.3951700000	  48.3492000000	  25.1893000000
O	   2.6035200000	  49.0640000000	  24.9492000000
O	   0.2259939947	  49.0734000000	  25.4747000000
C	   1.9454800000	  47.4844000000	  26.7398000000
F	   2.5424400000	  48.2754000000	  27.5738000000
F	   2.8307400000	  46.5296000000	  26.4884000000
F	   1.0166939947	  46.8014000000	  27.4289000000
S	   1.3747500000	  46.6563000000	  22.9435000000
O	   1.9159400000	  47.6710000000	  22.0591000000
O	   0.2660939947	  45.8757000000	  22.4268000000
C	   2.6373300000	  45.3152000000	  23.0153000000
F	   3.6810100000	  45.7874000000	  23.5980000000
F	   2.3442100000	  44.1750000000	  23.6371000000
F	   3.0372900000	  44.8911000000	  21.8118000000
S	   0.0218939947	  55.7375000000	  25.4182000000
S	  -0.2622060053	  54.4713000000	  27.1428000000
S	   1.6493800000	  53.8961000000	  27.9613000000
S	   4.3245500000	  52.7783000000	  24.5961000000
S	   5.7030500000	  51.8181000000	  23.4649000000
S	   5.0672000000	  50.1671000000	  22.3598000000
S	   4.3202000000	  52.3165000000	  26.6801000000
S	   2.4194600000	  51.9958000000	  27.4371000000
