43

Li	  50.1560000000	   7.3131000000	  27.9610000000
O	  48.7213000000	   5.8366300000	  27.9648000000
O	  47.1805000000	   4.3591000000	  28.3994000000
C	  48.9087000000	   5.6417200000	  29.3162000000
C	  47.8875000000	   4.5570000000	  29.6450000000
C	  47.3909000000	   5.5471500000	  27.8048000000
H	  49.9833000000	   5.2579500000	  29.3781000000
H	  48.7345000000	   6.5659700000	  29.8881000000
H	  48.2706000000	   3.6226300000	  30.1475000000
H	  47.0617000000	   4.9854600000	  30.2657000000
H	  46.6717000000	   6.3397400000	  28.1818000000
H	  47.1408000000	   5.5698100000	  26.7241000000
N	  47.6645000000	  10.4912000000	  29.1402000000
S	  47.8911000000	   9.7765100000	  30.4920000000
O	  47.3508000000	   8.4382500000	  30.6151000000
O	  49.1953000000	  10.0523000000	  31.0891000000
C	  46.6562000000	  10.6964000000	  31.4808000000
F	  47.0801000000	  11.9434000000	  31.8217000000
F	  46.4894000000	  10.1851000000	  32.6721000000
F	  45.4460000000	  10.7556000000	  30.9296000000
S	  48.0740000000	   9.9126200000	  27.7060000000
O	  48.9119000000	   8.7308500000	  27.7035000000
O	  48.3649000000	  10.9585000000	  26.7933000000
C	  46.5170000000	   9.3559800000	  27.0906000000
F	  45.8630000000	   8.6443100000	  28.0145000000
F	  45.7836000000	  10.3687000000	  26.7130000000
F	  46.6890000000	   8.6026300000	  26.0685000000
S	  57.0041000000	  14.4757000000	  32.3778000000
S	  57.1397000000	  12.9765000000	  33.8152000000
S	  55.8785000000	  11.3386000000	  33.4330000000
S	  54.4306000000	   7.3952900000	  31.0545000000
S	  53.2422000000	   7.1468500000	  29.3372000000
S	  51.3757000000	   7.8549900000	  29.7032000000
S	  55.6336000000	   9.1108400000	  30.9038000000
S	  56.8135000000	   9.6170100000	  32.5757000000
S	  56.0037000000	  15.1063000000	  29.2514000000
S	  55.0452000000	  15.8685000000	  27.4045000000
S	  53.0444000000	  15.1310000000	  27.1166000000
S	  52.5781000000	  10.1798000000	  27.2714000000
S	  52.2281000000	   8.9093500000	  25.5924000000
S	  51.1444000000	   7.1663600000	  26.1260000000
S	  51.6697000000	  12.1227000000	  26.9930000000
S	  52.9249000000	  13.4210000000	  25.9890000000
