39

Li	  27.1733000000	   4.3776600000	  37.9192000000
O	  25.9463000000	   3.9610200000	  39.5119000000
O	  25.7611000000	   2.6579400000	  41.3751000000
C	  26.1332000000	   4.7622800000	  40.7282000000
C	  25.4254000000	   3.9658500000	  41.8383000000
C	  25.5617000000	   2.7606600000	  39.9574000000
H	  27.1744000000	   4.9433500000	  41.0163000000
H	  25.6671000000	   5.7616300000	  40.7301000000
H	  25.7376000000	   4.2666900000	  42.8437000000
H	  24.2877000000	   4.0518100000	  41.8321000000
H	  24.4908000000	   2.4866900000	  39.7112000000
H	  26.1077000000	   1.9953900000	  39.4245000000
O	  26.4483000000	   3.1043700000	  36.2762000000
O	  26.0403000000	   1.0401064454	  35.5322000000
C	  25.1206000000	   3.1866700000	  35.8060000000
C	  24.8312000000	   1.7219200000	  35.7351000000
C	  27.0150000000	   2.0384300000	  35.6475000000
H	  24.3643000000	   3.6640800000	  36.4642000000
H	  25.0477000000	   3.7430800000	  34.8958000000
H	  24.3684000000	   1.4903100000	  36.6523000000
H	  24.1661000000	   1.3737900000	  34.9858000000
H	  27.3453000000	   2.3331100000	  34.6314000000
H	  27.8508000000	   1.7256400000	  36.2787000000
S	  29.1350000000	   3.4952200000	  37.9931000000
S	  29.4083000000	   2.2323000000	  39.5937000000
S	  30.7310000000	   3.0558100000	  40.9327000000
S	  34.1446000000	   1.1704064454	  43.7344000000
S	  36.1307000000	   0.4227064454	  44.0956000000
S	  36.3139000000	  -1.6104935546	  43.1843000000
S	  33.8875000000	   2.6427000000	  42.2455000000
S	  32.5578000000	   2.0985100000	  40.7735000000
S	  27.2691000000	   6.4629200000	  37.9155000000
S	  27.5271000000	   7.0073400000	  35.9092000000
S	  26.0247000000	   6.4700300000	  34.5340000000
S	  25.4698000000	   2.6196100000	  32.1735000000
S	  25.0946000000	   2.4110400000	  30.1373000000
S	  25.8162000000	   0.5301064454	  29.2786000000
S	  27.0755000000	   4.0066000000	  32.4560000000
S	  26.4059000000	   5.9883200000	  32.5498000000
