49

Li	   7.6280300000	  47.8502000000	  31.2092000000
O	  10.1732000000	  47.2990000000	  34.0640000000
O	   8.8556100000	  46.7808000000	  32.2753000000
C	   9.4114900000	  46.0700000000	  34.3802000000
C	   8.3745100000	  45.7763000000	  33.2703000000
C	  10.1767000000	  47.2204000000	  32.7132000000
H	  10.1901000000	  45.2612000000	  34.3562000000
H	   8.9895200000	  46.2091000000	  35.4245000000
H	   8.3983600000	  44.7954000000	  32.9549000000
H	   7.3021000000	  45.9450000000	  33.6434000000
H	  10.5187000000	  48.1433000000	  32.2234000000
H	  10.9532000000	  46.5197000000	  32.4694000000
O	   8.2340000000	  46.4419000000	  27.4443000000
O	   7.8735900000	  46.8558000000	  29.6210000000
C	   8.4745500000	  45.1885000000	  28.0829000000
C	   8.3795600000	  45.5736000000	  29.5610000000
C	   7.3266200000	  47.0720000000	  28.3450000000
H	   7.7912400000	  44.4292000000	  27.7359000000
H	   9.4904300000	  44.9369000000	  27.7329000000
H	   7.8043300000	  44.8972000000	  30.0989000000
H	   9.3721900000	  45.5400000000	  30.1257000000
H	   7.2463700000	  48.1344000000	  28.1058000000
H	   6.3002600000	  46.7149000000	  28.3122000000
O	   8.0987700000	  49.5875000000	  30.8885000000
O	   8.9391000000	  51.5308000000	  31.1890000000
C	   8.9353100000	  49.8910000000	  29.8210000000
C	   9.7129600000	  51.0720000000	  30.1484000000
C	   8.3312300000	  50.4671000000	  31.7907000000
H	   9.5105800000	  48.9552000000	  29.7294000000
H	   8.4180200000	  50.0603000000	  28.8530000000
H	  10.7268000000	  50.8188000000	  30.4618000000
H	   9.6974400000	  51.8493000000	  29.4213000000
H	   7.3430500000	  50.7329000000	  32.1266000000
H	   8.9737100000	  49.9722000000	  32.5528000000
N	   3.8261000000	  48.8896000000	  31.1262000000
S	   3.6179100000	  50.4070000000	  31.1575000000
O	   2.2683800000	  50.9263000000	  30.8666000000
O	   4.3664400000	  51.0388000000	  32.1879000000
C	   4.5591700000	  50.9497000000	  29.6731000000
F	   4.5381600000	  52.2775000000	  29.3928000000
F	   4.1403300000	  50.3899000000	  28.5559000000
F	   5.8430900000	  50.5443000000	  29.8003000000
S	   4.4055200000	  48.0154000000	  32.2849000000
O	   3.8902100000	  48.2030000000	  33.6176000000
O	   5.8300500000	  47.8537000000	  32.1796000000
C	   3.8048900000	  46.3216000000	  31.9628000000
F	   3.2210600000	  45.7718000000	  33.0058000000
F	   2.9418900000	  46.3941000000	  30.9384000000
F	   4.7472100000	  45.4868000000	  31.5807000000
