38

Li	  43.0473000000	  14.6061000000	  18.4045000000
O	  42.6046000000	  15.0929000000	  22.6830000000
O	  42.8719000000	  14.5599000000	  20.4473000000
C	  41.6214000000	  14.1355000000	  22.4497000000
C	  41.8735000000	  13.6879000000	  20.9988000000
C	  43.5052000000	  15.0096000000	  21.6117000000
H	  41.7560000000	  13.2513000000	  23.0415000000
H	  40.6599000000	  14.5111000000	  22.7138000000
H	  42.2344000000	  12.6739000000	  20.9333000000
H	  40.9401000000	  13.7209000000	  20.4593000000
H	  44.2255000000	  15.8091000000	  21.5082000000
H	  44.0973000000	  14.1616000000	  21.9036000000
O	  44.1504000000	  13.2137000000	  17.8540000000
O	  45.0169000000	  11.4310000000	  17.0335000000
C	  45.1210000000	  12.8370000000	  18.8674000000
C	  45.5240000000	  11.5174000000	  18.3094000000
C	  44.5851000000	  12.6447000000	  16.6625000000
H	  45.9100000000	  13.6339000000	  19.0364000000
H	  44.6654000000	  12.6711000000	  19.8677000000
H	  46.6039000000	  11.4709000000	  18.3287000000
H	  45.1597000000	  10.6754000000	  18.9393000000
H	  43.7841000000	  12.5968000000	  15.8948000000
H	  45.4605000000	  13.1586000000	  16.2698000000
N	  44.0368000000	  17.2919000000	  16.4708000000
S	  42.6289000000	  16.8132000000	  16.0269000000
O	  42.2243000000	  15.5697000000	  16.7509000000
O	  41.7170000000	  17.9211000000	  15.9268000000
C	  42.9062000000	  16.4356000000	  14.2296000000
F	  43.6628000000	  15.3625000000	  14.0876000000
F	  43.5388000000	  17.4403000000	  13.6109000000
F	  41.8192000000	  16.2621000000	  13.5428000000
S	  44.8348000000	  17.1210000000	  17.7846000000
O	  44.2557000000	  16.1032000000	  18.6258000000
O	  45.3057000000	  18.3416000000	  18.3914000000
C	  46.3242000000	  16.3161000000	  17.0783000000
F	  47.0669000000	  17.1245000000	  16.3558000000
F	  47.1506000000	  15.7968000000	  17.9371000000
F	  45.9939000000	  15.3527000000	  16.1957000000
