24

Li	  26.7813000000	   7.4928700000	  38.9404000000
N	  23.6760000000	   8.1774600000	  37.5669000000
S	  23.8833000000	   6.7476200000	  38.2180000000
O	  23.0279000000	   5.7427500000	  37.6525000000
O	  25.2379000000	   6.4209000000	  38.6020000000
C	  23.0397000000	   7.0370500000	  39.7510000000
F	  22.8515000000	   5.9219300000	  40.4470000000
F	  21.8332000000	   7.4888400000	  39.5259000000
F	  23.6265000000	   8.0056000000	  40.4758000000
S	  24.6859000000	   9.3190600000	  37.3571000000
O	  26.0316000000	   8.9976800000	  37.8267000000
O	  24.1021000000	  10.6080000000	  37.6952000000
C	  24.8046000000	   9.3777400000	  35.5563000000
F	  23.6518000000	   9.6171400000	  35.0151000000
F	  25.5970000000	  10.2820000000	  35.0556000000
F	  25.1840000000	   8.2155300000	  35.0241000000
S	  26.7214000000	   7.6405400000	  41.0023000000
S	  28.7719000000	   7.5135200000	  40.4686000000
S	  29.7563000000	   5.8742000000	  41.3416000000
S	  30.7690000000	   4.6363300000	  45.7595000000
S	  30.7166000000	   4.8511200000	  47.8384000000
S	  32.5920000000	   5.2499200000	  48.6846000000
S	  30.3736000000	   6.4274500000	  44.7555000000
S	  31.1963000000	   6.3929300000	  42.8048000000
