42

Li	  28.3022000000	   5.2903500000	   8.2972400000
O	  28.6763000000	   5.5975100000	   4.2777100000
O	  28.2650000000	   5.3875700000	   6.4164000000
C	  27.7816000000	   4.5357400000	   4.3254200000
C	  27.4220000000	   4.4284800000	   5.8198500000
C	  29.2448000000	   5.6160400000	   5.4891700000
H	  26.9025000000	   4.6181500000	   3.6138100000
H	  28.1176000000	   3.5750500000	   4.0271200000
H	  26.3524000000	   4.7290500000	   6.0851800000
H	  27.6758000000	   3.4692900000	   6.2276700000
H	  29.9704000000	   4.8561900000	   5.6377600000
H	  29.6962000000	   6.6158100000	   5.7153500000
N	  32.6949000000	   6.5996700000	   8.9625700000
S	  32.9575000000	   7.8115400000	   8.0159500000
O	  32.3898000000	   7.7440800000	   6.7108900000
O	  32.8353000000	   9.0722500000	   8.7103900000
C	  34.6866000000	   7.7232400000	   7.5598700000
F	  35.0272000000	   8.5620700000	   6.5657500000
F	  35.0937000000	   6.5418000000	   7.2621400000
F	  35.3570000000	   8.0707900000	   8.6651900000
S	  31.5652000000	   5.5351700000	   8.6232900000
O	  31.9500000000	   4.6111500000	   7.5450900000
O	  30.2376000000	   5.9521700000	   8.6770600000
C	  31.7696000000	   4.5373100000	  10.1245000000
F	  33.0590000000	   4.2734300000	  10.2596000000
F	  31.3153000000	   5.0868200000	  11.2765000000
F	  31.2043000000	   3.3393400000	  10.0232000000
N	  27.4549000000	   9.0194300000	   8.6440300000
S	  27.6015000000	  10.4312000000	   7.9860800000
O	  26.6357000000	  10.7998000000	   6.9472100000
O	  27.9226000000	  11.4849000000	   8.9629100000
C	  29.1836000000	  10.1676000000	   7.0170800000
F	  30.0459000000	   9.5365000000	   7.7678300000
F	  29.7542000000	  11.2955000000	   6.6006300000
F	  28.9505000000	   9.4596500000	   5.9237800000
S	  26.4186000000	   7.8878300000	   8.2625700000
O	  26.9217000000	   6.5804600000	   8.6106800000
O	  25.7772000000	   8.0139400000	   6.9722300000
C	  25.0822000000	   8.2456000000	   9.4646300000
F	  24.0576000000	   7.5087200000	   9.2668900000
F	  25.4532000000	   7.9845500000	  10.7010000000
F	  24.6825000000	   9.4809700000	   9.3704400000
