68

Li	  32.6645000000	  49.2944000000	  13.0783000000
O	  36.4858000000	  48.3269000000	  11.4417000000
O	  34.4520000000	  48.7580000000	  12.3539000000
C	  36.6095000000	  47.9867000000	  12.8029000000
C	  35.4719000000	  48.8044000000	  13.3865000000
C	  35.1840000000	  48.8887000000	  11.1814000000
H	  36.4683000000	  46.9343000000	  12.9513000000
H	  37.6939000000	  48.1661000000	  13.2529000000
H	  35.0822000000	  48.4027000000	  14.3483000000
H	  35.9270000000	  49.7241000000	  13.5603000000
H	  35.2700000000	  49.9231000000	  10.7665000000
H	  34.6267000000	  48.3417000000	  10.4174000000
O	  31.9656000000	  52.8168000000	  11.2730000000
O	  32.9806000000	  51.0646000000	  12.3168000000
C	  32.3776000000	  53.2645000000	  12.5099000000
C	  33.4541000000	  52.2372000000	  12.8797000000
C	  32.4322000000	  51.5489000000	  11.1579000000
H	  32.8582000000	  54.2388000000	  12.4373000000
H	  31.6012000000	  53.2547000000	  13.2217000000
H	  34.2842000000	  52.6725000000	  12.3797000000
H	  33.5804000000	  52.2646000000	  13.9418000000
H	  31.5555000000	  51.0961000000	  10.7799000000
H	  33.0536000000	  51.3731000000	  10.2952000000
N	  30.8452000000	  52.2859000000	  15.7853000000
S	  30.9005000000	  50.7249000000	  15.6114000000
O	  32.0591000000	  50.3386000000	  14.8379000000
O	  30.5667000000	  49.9927000000	  16.8219000000
C	  29.5094000000	  50.3394000000	  14.5039000000
F	  29.3015000000	  49.0541000000	  14.4687000000
F	  29.7275000000	  50.7664000000	  13.3059000000
F	  28.4013000000	  50.8995000000	  14.9745000000
S	  31.0074000000	  53.1012000000	  17.0844000000
O	  32.0051000000	  52.6132000000	  18.0226000000
O	  29.7543000000	  53.6419000000	  17.5065000000
C	  31.7756000000	  54.6258000000	  16.4154000000
F	  31.1327000000	  55.0864000000	  15.3116000000
F	  31.9201000000	  55.5260000000	  17.3594000000
F	  33.0238000000	  54.4194000000	  15.9473000000
N	  30.8117000000	  46.6618000000	  10.2373000000
S	  31.9653000000	  45.6633000000	  10.4557000000
O	  32.9489000000	  46.1448000000	  11.4093000000
O	  31.4695000000	  44.2797000000	  10.5657000000
C	  32.8334000000	  45.7700000000	   8.8124400000
F	  33.2835000000	  46.9954000000	   8.5979100000
F	  32.0329000000	  45.4775000000	   7.8117200000
F	  33.9018000000	  44.9698000000	   8.8338200000
S	  30.8509000000	  48.2024000000	  10.3542000000
O	  31.2826000000	  48.8857000000	   9.1817200000
O	  31.2039000000	  48.7429000000	  11.6888000000
C	  28.9810000000	  48.3780000000	  10.3705000000
F	  28.5886000000	  49.7036000000	  10.4093000000
F	  28.3865000000	  47.8796000000	   9.2917300000
F	  28.4032000000	  47.9265000000	  11.4478000000
N	  33.5981000000	  45.5404000000	  14.6797000000
S	  32.4945000000	  46.5637000000	  14.8904000000
O	  32.2787000000	  46.8957000000	  16.2358000000
O	  32.5116000000	  47.6211000000	  13.9403000000
C	  30.9858000000	  45.6990000000	  14.4538000000
F	  31.1457000000	  44.3863000000	  14.2576000000
F	  30.4843000000	  46.1412000000	  13.3217000000
F	  30.0302000000	  45.9014000000	  15.3480000000
S	  34.7462000000	  45.1382000000	  15.6627000000
O	  35.0925000000	  46.1589000000	  16.6038000000
O	  35.8472000000	  44.4316000000	  15.0291000000
C	  33.9507000000	  43.8993000000	  16.6954000000
F	  34.8530000000	  43.2317000000	  17.3996000000
F	  33.0577000000	  44.4499000000	  17.5252000000
F	  33.2279000000	  43.0132000000	  16.1080000000
