17

Li	  25.8816000000	  56.8538000000	  27.4844000000
S	  27.5899000000	  55.6573000000	  26.7796000000
S	  26.3197000000	  54.3114000000	  25.7289000000
S	  24.8116000000	  53.7763000000	  26.9245000000
S	  22.5761000000	  57.8097000000	  25.2889000000
S	  23.7303000000	  59.2409235546	  26.3389000000
S	  25.8346000000	  58.8853535546	  26.2304000000
S	  22.1367000000	  56.1685000000	  26.6670000000
S	  22.9105000000	  54.2462000000	  26.1439000000
S	  28.7882000000	  64.5412735546	  35.7274000000
S	  28.3379000000	  62.7705735546	  34.6304000000
S	  26.7481000000	  63.0388335546	  33.3338000000
S	  27.0095000000	  59.4385935546	  29.5418000000
S	  26.7883000000	  57.3156000000	  29.6209000000
S	  24.8952000000	  56.5963000000	  29.2182000000
S	  27.5599000000	  60.3311835546	  31.3480000000
S	  26.1523000000	  61.2774735546	  32.4773000000
