28

Li	  28.0650000000	   3.8347500000	  37.6111000000
O	  27.0938000000	   2.5740600000	  39.0074000000
O	  26.4222000000	   1.9321900000	  41.0544000000
C	  25.7608000000	   2.8081400000	  38.9425000000
C	  25.3021000000	   2.0968500000	  40.1564000000
C	  27.4853000000	   1.9484000000	  40.2190000000
H	  25.6191000000	   3.8765200000	  39.0954000000
H	  25.2569000000	   2.4915600000	  37.9856000000
H	  24.4489000000	   2.5592600000	  40.6190000000
H	  25.0099000000	   1.1269064454	  39.8578000000
H	  27.8764000000	   0.9379064454	  40.0282000000
H	  28.2740000000	   2.5899700000	  40.7996000000
S	  30.0894000000	   3.1550700000	  37.7365000000
S	  30.8273000000	   2.0162800000	  39.2957000000
S	  32.4249000000	   2.7561300000	  40.4273000000
S	  36.1550000000	   1.4192400000	  42.8849000000
S	  38.1837000000	   0.5821064454	  42.8679000000
S	  37.9162000000	  -1.5153935546	  43.0176000000
S	  35.8378000000	   2.5538700000	  41.1648000000
S	  34.1915000000	   1.8408000000	  39.9664000000
S	  28.1391000000	   5.8611600000	  37.1533000000
S	  26.4432000000	   5.0566600000	  36.1269000000
S	  26.4525000000	   2.9392100000	  35.6546000000
S	  25.4629000000	   3.0457800000	  30.9704000000
S	  26.0370000000	   2.3367800000	  29.0839000000
S	  24.4308000000	   1.7141400000	  27.8480000000
S	  26.0328000000	   1.6860000000	  32.6142000000
S	  27.4400000000	   2.5831500000	  33.8615000000
