31

Li	  34.0982000000	  48.8287000000	  15.3881000000
N	  30.7666000000	  50.9518000000	  16.3843000000
S	  31.5273000000	  50.9703000000	  15.0535000000
O	  32.8757000000	  50.3618000000	  15.0604000000
O	  30.7519000000	  50.8169000000	  13.8481000000
C	  32.0107000000	  52.7200000000	  14.9755000000
F	  32.8078000000	  52.9158000000	  13.9574000000
F	  32.5278000000	  53.1064000000	  16.1421000000
F	  30.9259000000	  53.4846000000	  14.8182000000
S	  30.4555000000	  49.7225000000	  17.3011000000
O	  31.1675000000	  48.5541000000	  16.8944000000
O	  29.0585000000	  49.6128000000	  17.5657000000
C	  31.1813000000	  50.3143000000	  18.9481000000
F	  30.3718000000	  51.1797000000	  19.5050000000
F	  31.3030000000	  49.2842000000	  19.7567000000
F	  32.3383000000	  50.9450000000	  18.8604000000
N	  33.8076000000	  46.1221000000	  13.1417000000
S	  32.5481000000	  46.4705000000	  13.9440000000
O	  32.7346000000	  47.4503000000	  14.9751000000
O	  31.3925000000	  46.6341000000	  13.0732000000
C	  32.1822000000	  44.8467000000	  14.7338000000
F	  33.1691000000	  44.3302000000	  15.4621000000
F	  31.8760000000	  43.9502000000	  13.8164000000
F	  31.1488000000	  44.8607000000	  15.5081000000
S	  35.0536000000	  46.9188000000	  12.9971000000
O	  35.1227000000	  48.1197000000	  13.7950000000
O	  35.5243000000	  47.0391000000	  11.6854000000
C	  36.2574000000	  45.7808000000	  13.8473000000
F	  37.4845000000	  46.1619000000	  13.6855000000
F	  36.0840000000	  45.7258000000	  15.2207000000
F	  36.1287000000	  44.5168000000	  13.3609000000
