16

Li	  54.3917000000	   5.4502200000	   2.2605400000
N	  55.1275000000	   2.4941800000	   5.2119500000
S	  53.8161000000	   3.2029200000	   5.7124600000
O	  54.0941000000	   4.5365500000	   6.1558800000
O	  52.6424000000	   3.0224600000	   4.8762900000
C	  53.5084000000	   2.2823900000	   7.2040400000
F	  52.8259000000	   3.0201400000	   7.9886100000
F	  54.6173000000	   2.0100700000	   7.9077100000
F	  52.7885000000	   1.2153300000	   7.1139100000
S	  55.9509000000	   2.8846800000	   3.9694400000
O	  55.4993000000	   4.0312800000	   3.2012400000
O	  56.2102000000	   1.6320700000	   3.2178600000
C	  57.5041000000	   3.2064900000	   4.8440900000
F	  57.9801000000	   2.2895200000	   5.6830000000
F	  58.5087000000	   3.3412200000	   3.9386600000
F	  57.3305000000	   4.2540100000	   5.5373700000
