35

Li	  44.3329000000	  10.1133000000	  33.8844000000
O	  41.0639000000	  12.1436000000	  32.6945000000
O	  42.7056000000	  10.7428000000	  33.2348000000
C	  40.3858000000	  11.0956000000	  33.3670000000
C	  41.5578000000	  10.5171000000	  34.1192000000
C	  42.3236000000	  11.7059000000	  32.2432000000
H	  39.6390000000	  11.3790000000	  34.1292000000
H	  40.0499000000	  10.2952000000	  32.7475000000
H	  41.7588000000	  10.9835000000	  35.1079000000
H	  41.4299000000	   9.4572900000	  34.3268000000
H	  42.1507000000	  11.1269000000	  31.3636000000
H	  42.9502000000	  12.5561000000	  32.1386000000
N	  46.1265000000	  10.3965000000	  30.5905000000
S	  46.5854000000	  11.0175000000	  31.9682000000
O	  45.5069000000	  11.2017000000	  32.9535000000
O	  47.8342000000	  10.3686000000	  32.4037000000
C	  47.1019000000	  12.6394000000	  31.5484000000
F	  47.7735000000	  13.1716000000	  32.5164000000
F	  46.1730000000	  13.5303000000	  31.1941000000
F	  47.9025000000	  12.6189000000	  30.4832000000
S	  46.4569000000	   8.9701400000	  30.0326000000
O	  46.4746000000	   7.9423700000	  31.1002000000
O	  47.4458000000	   8.9689200000	  29.0376000000
C	  44.9966000000	   8.5001000000	  29.1983000000
F	  43.9176000000	   8.9336900000	  29.8549000000
F	  44.9926000000	   8.9909600000	  27.9491000000
F	  44.9891000000	   7.1712600000	  28.9541000000
S	  47.7165000000	  16.9740000000	  39.4264000000
S	  46.4429000000	  16.7230000000	  37.7638000000
S	  45.4284000000	  14.8905000000	  38.1035000000
S	  45.0209000000	  10.2358000000	  36.7026000000
S	  45.6100000000	   8.9153300000	  35.1858000000
S	  43.9692000000	   8.0650700000	  34.0730000000
S	  46.5247000000	  11.6610000000	  37.0831000000
S	  45.8443000000	  13.5900000000	  36.5150000000
