54

Li	  57.4751000000	   5.7769500000	  54.0311000000
O	  54.2578000000	   4.1373600000	  52.3084000000
O	  55.8659000000	   5.4975900000	  52.9120000000
C	  53.5264000000	   5.2117700000	  52.8807000000
C	  54.6448000000	   6.0674900000	  53.4943000000
C	  55.3783000000	   4.7397300000	  51.8743000000
H	  53.0025000000	   5.8040400000	  52.1660000000
H	  52.8092000000	   4.9858900000	  53.6339000000
H	  54.5411000000	   7.0869200000	  53.2168000000
H	  54.7014000000	   5.9618300000	  54.5657000000
H	  56.1909000000	   4.0034500000	  51.7140000000
H	  55.1988000000	   5.2508800000	  50.9444000000
O	  57.8237000000	   4.0314600000	  55.0448000000
O	  58.8197000000	   2.2958900000	  56.2142000000
C	  57.3927000000	   3.9825100000	  56.4348000000
C	  58.3952000000	   3.2043200000	  57.1939000000
C	  58.7444000000	   2.9997300000	  55.0066000000
H	  57.1719000000	   4.9145200000	  56.8861000000
H	  56.4085000000	   3.5514300000	  56.4684000000
H	  59.1298000000	   3.8273800000	  57.6160000000
H	  57.9640000000	   2.6811300000	  58.0970000000
H	  58.6480000000	   2.2852000000	  54.1972000000
H	  59.7194946234	   3.4332400000	  54.9360000000
O	  56.3004000000	   8.5325100000	  54.0186000000
O	  58.5414000000	   6.8770900000	  55.0435000000
C	  57.5251000000	   8.9515500000	  54.6018000000
C	  57.7703000000	   7.8874800000	  55.6749000000
C	  55.7026000000	   9.4622100000	  53.1449000000
C	  59.9613946234	   7.0657000000	  55.0853000000
H	  58.2780000000	   8.8961100000	  53.8240000000
H	  57.4541000000	   9.9257100000	  55.0770000000
H	  58.4269000000	   8.3731800000	  56.4728000000
H	  56.9127000000	   7.4173900000	  56.0823000000
H	  56.3313000000	   9.7489200000	  52.2423000000
H	  54.6972000000	   9.1378300000	  52.9943000000
H	  55.6198000000	  10.3589000000	  53.6426000000
H	  60.3925946234	   6.5835700000	  54.2671000000
H	  60.2444046234	   8.1444400000	  55.0152000000
H	  60.3289746234	   6.6968700000	  56.0397000000
N	  59.2851746234	   6.3443700000	  49.8258000000
S	  59.2714146234	   4.7528800000	  49.7063000000
O	  58.6976000000	   4.0914800000	  50.8565000000
O	  59.0264000000	   4.1983300000	  48.3936000000
C	  61.0840746234	   4.4244900000	  49.9582000000
F	  61.3548046234	   3.1487400000	  49.7419000000
F	  61.5028346234	   4.8415500000	  51.1664000000
F	  61.8583546234	   5.0771000000	  49.0647000000
S	  58.6904000000	   7.2360200000	  51.0463000000
O	  58.4668000000	   6.4336900000	  52.2806000000
O	  57.7346000000	   8.2393900000	  50.7443000000
C	  60.1739346234	   8.3170100000	  51.3997000000
F	  60.0188846234	   9.2271400000	  52.3960000000
F	  61.2653146234	   7.6621700000	  51.7915000000
F	  60.5510746234	   8.9502900000	  50.3225000000
