43

Li	  33.5157000000	  42.5575000000	  33.2186000000
O	  35.2606000000	  42.8769000000	  29.5103000000
O	  34.0053000000	  42.9713000000	  31.4139000000
C	  34.1669000000	  43.7865000000	  29.2507000000
C	  33.8531000000	  44.1445000000	  30.6605000000
C	  34.9791000000	  42.1889000000	  30.6806000000
H	  34.4036000000	  44.7617000000	  28.7271000000
H	  33.4280000000	  43.3128000000	  28.6348000000
H	  34.6483000000	  44.9231000000	  30.8446000000
H	  32.9186000000	  44.6150000000	  30.6750000000
H	  34.5741000000	  41.1925000000	  30.4620000000
H	  35.8598000000	  42.0548000000	  31.3186000000
O	  34.3602000000	  41.0626000000	  33.9886000000
O	  32.0755000000	  41.4496000000	  32.5317000000
C	  33.6203000000	  39.9201000000	  33.5325000000
C	  32.1318000000	  40.3430000000	  33.3420000000
C	  35.6927000000	  40.6514000000	  34.2076000000
C	  30.7797000000	  41.7528000000	  32.0752000000
H	  34.1524000000	  39.5458000000	  32.6515000000
H	  33.6251000000	  39.0773000000	  34.2783000000
H	  31.5039000000	  39.5040000000	  32.9684000000
H	  31.6634000000	  40.6312000000	  34.2588000000
H	  35.7181000000	  40.1697000000	  35.2359000000
H	  36.0985000000	  40.0452000000	  33.3848000000
H	  36.2986000000	  41.5708000000	  34.2500000000
H	  31.0135000000	  42.2145000000	  31.1105000000
H	  30.1916000000	  40.8809000000	  31.7722000000
H	  30.2672000000	  42.4967000000	  32.7253000000
N	  33.8119000000	  44.9168000000	  35.8730000000
S	  32.4605000000	  44.0681000000	  35.8846000000
O	  32.2756000000	  43.2846000000	  34.7222000000
O	  32.1510000000	  43.4357000000	  37.0841000000
C	  31.2306000000	  45.3942000000	  35.7475000000
F	  31.5204000000	  46.2262000000	  34.7614000000
F	  31.1874000000	  46.1465000000	  36.8637000000
F	  30.0352000000	  44.9119000000	  35.5654000000
S	  34.8452000000	  44.9643000000	  34.6834000000
O	  35.0511000000	  46.3253000000	  34.2580000000
O	  34.8514000000	  43.9087000000	  33.6593000000
C	  36.2965000000	  44.4942000000	  35.7608000000
F	  36.4876000000	  45.2853000000	  36.7544000000
F	  36.0536000000	  43.2846000000	  36.2371000000
F	  37.4431000000	  44.3983000000	  35.1579000000
