35

Li	  26.1197000000	  28.6366000000	  36.7346000000
O	  25.9410000000	  26.8911000000	  32.8056000000
O	  26.0458000000	  27.9185000000	  34.7875000000
C	  24.8825000000	  27.8350000000	  32.8957000000
C	  24.7542000000	  28.0505000000	  34.3626000000
C	  26.4612000000	  26.8546000000	  34.0894000000
H	  25.2013000000	  28.8033000000	  32.4301000000
H	  23.9010000000	  27.5671000000	  32.3948000000
H	  24.2761000000	  28.9962000000	  34.5572000000
H	  24.2435000000	  27.2279000000	  34.8544000000
H	  26.3319000000	  26.0183000000	  34.7266000000
H	  27.5238000000	  27.1037000000	  34.0426000000
N	  27.5343000000	  26.0490000000	  38.1684000000
S	  28.3804000000	  26.8440000000	  37.2101000000
O	  28.6937000000	  26.1007000000	  35.9896000000
O	  27.9410000000	  28.1724000000	  37.0265000000
C	  29.9898000000	  27.0617000000	  38.1717000000
F	  29.7378000000	  27.4357000000	  39.4750000000
F	  30.7314000000	  28.0586000000	  37.6845000000
F	  30.7365000000	  25.9699000000	  38.2434000000
S	  26.0036000000	  25.7930000000	  38.0507000000
O	  25.6648000000	  24.5330000000	  37.5256000000
O	  25.3225000000	  26.8921000000	  37.4891000000
C	  25.4838000000	  25.5090000000	  39.8102000000
F	  24.1928000000	  25.3468000000	  39.9007000000
F	  26.0697000000	  24.4207000000	  40.3300000000
F	  25.8242000000	  26.5173000000	  40.6518000000
S	  24.9881000000	  30.0819000000	  37.6441000000
S	  25.9554000000	  29.6664000000	  39.5375000000
S	  27.3663000000	  31.1718000000	  39.9612000000
S	  32.4905000000	  30.1278000000	  39.6853000000
S	  33.8978000000	  31.6728000000	  39.8944000000
S	  34.2479000000	  32.7798000000	  38.1041000000
S	  30.6240000000	  30.4681000000	  40.7118000000
S	  29.3032000000	  30.9991000000	  39.1769000000
