39

Li	   1.2702800000	  21.0658000000	  41.1782000000
O	   2.7682000000	  20.0200000000	  42.1130000000
O	   4.9776000000	  20.1170000000	  42.2904000000
C	   3.1565400000	  18.6550000000	  42.1627000000
C	   4.6619000000	  18.7486000000	  42.0687000000
C	   3.7630800000	  20.7541000000	  42.5967000000
H	   2.9879500000	  18.1635000000	  43.1355000000
H	   2.7421300000	  17.9771000000	  41.4144000000
H	   5.0057100000	  18.1405000000	  42.8699000000
H	   4.9791100000	  18.4179000000	  41.0584000000
H	   3.7014200000	  21.7615000000	  42.2772000000
H	   3.5453900000	  20.7279000000	  43.6470000000
O	  -0.3046846234	  22.9095000000	  44.3863000000
O	   0.3060153766	  21.6958000000	  42.6085000000
C	  -1.3361846234	  23.1341000000	  43.4654000000
C	  -1.0580846234	  22.1325000000	  42.3881000000
C	   0.3711153766	  21.7241000000	  44.0400000000
H	  -2.3742846234	  23.0521000000	  43.8088000000
H	  -1.1463846234	  24.1837000000	  43.0256000000
H	  -1.7648846234	  21.3523000000	  42.4350000000
H	  -1.2357846234	  22.6940000000	  41.5031000000
H	   1.4480200000	  21.5899000000	  44.2484000000
H	  -0.1956846234	  20.8650000000	  44.4109000000
S	  -6.2452846234	  30.4266000000	  35.9939000000
S	  -4.4100846234	  29.4548000000	  35.6542000000
S	  -4.2883846234	  27.6347000000	  36.7553000000
S	  -0.1103846234	  25.1773000000	  39.1642000000
S	   0.6837153766	  23.2649000000	  38.8958000000
S	   2.1160900000	  22.8985000000	  40.3191000000
S	  -1.9546846234	  25.2913000000	  38.1550000000
S	  -2.5736846234	  27.3595000000	  37.9107000000
S	   0.5101153766	  19.5495000000	  39.9834000000
S	   1.9314400000	  18.9376000000	  38.5377000000
S	   1.9624400000	  20.2506000000	  36.8356000000
S	   3.9325400000	  17.1555000000	  33.2947000000
S	   4.1908600000	  17.1797000000	  31.1839000000
S	   6.1687500000	  17.0329000000	  30.5353000000
S	   3.8092500000	  19.0291000000	  34.1645000000
S	   1.8840100000	  19.2184000000	  35.0085000000
