49

Li	  42.2502000000	  18.4235000000	  21.4284000000
O	  42.5332000000	  19.2204000000	  23.2271000000
O	  44.0460000000	  17.5836000000	  21.6719000000
C	  43.4021000000	  18.2716000000	  23.8746000000
C	  44.5347000000	  18.0279000000	  22.9692000000
C	  41.6800000000	  19.8449000000	  24.1854000000
C	  45.0420000000	  17.2335000000	  20.7216000000
H	  43.7713000000	  18.6042000000	  24.7931000000
H	  42.7334000000	  17.3953000000	  23.8361000000
H	  45.0962000000	  18.9676000000	  22.8819000000
H	  45.2139000000	  17.2580000000	  23.3054000000
H	  41.2667000000	  20.7248000000	  23.7478000000
H	  40.8521000000	  19.0792000000	  24.4468000000
H	  42.0922000000	  20.1497000000	  25.1670000000
H	  45.4111000000	  17.9389000000	  20.0158000000
H	  45.7663000000	  16.4723000000	  21.0308000000
H	  44.4763000000	  16.6032000000	  20.0237000000
O	  40.8789000000	  17.1231000000	  21.7050000000
O	  39.4155000000	  15.9202000000	  19.1621000000
C	  40.5051000000	  15.8050000000	  21.4109000000
C	  40.5565000000	  15.5157000000	  19.8961000000
C	  39.8228000000	  18.0173000000	  21.8093000000
C	  39.4248000000	  15.5397000000	  17.8185000000
H	  41.2816000000	  15.2898000000	  22.0386000000
H	  39.6218000000	  15.4778000000	  21.8594000000
H	  41.3339000000	  16.0553000000	  19.4214000000
H	  40.6733000000	  14.4043000000	  19.8734000000
H	  39.3482000000	  17.9366000000	  20.8149000000
H	  39.0202000000	  17.8461000000	  22.5897000000
H	  40.1887000000	  19.0016000000	  22.0087000000
H	  40.4587000000	  15.5187000000	  17.4165000000
H	  39.0164000000	  14.5074000000	  17.7971000000
H	  38.7184000000	  16.1019000000	  17.2174000000
O	  39.6361000000	  21.0162000000	  20.4101000000
O	  42.2357000000	  19.6148000000	  19.9029000000
C	  40.4219000000	  21.1097000000	  19.1911000000
C	  41.1978000000	  19.8216000000	  18.8962000000
C	  38.8184000000	  22.1815000000	  20.6048000000
C	  43.3753000000	  20.4480000000	  19.7123000000
H	  39.6709000000	  21.3087000000	  18.4414000000
H	  40.9427000000	  22.0076000000	  19.2879000000
H	  40.5066000000	  19.0447000000	  18.7709000000
H	  41.6801000000	  19.9525000000	  17.9428000000
H	  38.1538000000	  21.9398000000	  21.4485000000
H	  39.4630000000	  23.0062000000	  20.9087000000
H	  38.2290000000	  22.4186000000	  19.7292000000
H	  44.0990000000	  19.9908000000	  20.2804000000
H	  43.6976000000	  20.4254000000	  18.7176000000
H	  43.2850000000	  21.4228000000	  20.0357000000
