58

Li	  35.8188000000	  57.8179000000	  58.9081000000
O	  34.1648000000	  56.7240000000	  58.6519000000
O	  32.4214000000	  55.3609000000	  58.9606000000
C	  33.2974000000	  56.9899000000	  57.5869000000
C	  32.3461000000	  55.7849000000	  57.6290000000
C	  33.2708000000	  56.1978000000	  59.5871595662
H	  32.7481000000	  57.9443000000	  57.7548000000
H	  33.8669000000	  57.1032000000	  56.6465000000
H	  31.3286000000	  56.0045000000	  57.2041000000
H	  32.6110000000	  54.9447000000	  56.9937000000
H	  33.7914000000	  55.7718000000	  60.4436495662
H	  32.6705000000	  56.9554000000	  60.0472695662
O	  37.5002000000	  58.8694000000	  59.2045895662
O	  37.0051000000	  56.2039000000	  58.4257000000
C	  38.5961000000	  57.9167000000	  59.2874995662
C	  38.2343000000	  56.9130000000	  58.0983000000
C	  37.5964000000	  59.7981814650	  60.2626295662
C	  36.4681000000	  55.3899000000	  57.3697000000
H	  39.4932000000	  58.4216000000	  59.0494000000
H	  38.7388000000	  57.2294000000	  60.1568395662
H	  37.9892000000	  57.5405000000	  57.2785000000
H	  38.9770000000	  56.2665000000	  57.7628000000
H	  38.1043000000	  59.3047314650	  61.1294395662
H	  38.1294000000	  60.7338414650	  60.0116995662
H	  36.5599000000	  60.0799914650	  60.5696995662
H	  36.1932000000	  55.9593000000	  56.5414000000
H	  37.2064000000	  54.6968000000	  56.9719000000
H	  35.6979000000	  54.8134000000	  57.6857000000
N	  34.8639000000	  61.6914114650	  57.9213000000
S	  33.7413000000	  62.4437014650	  58.6354000000
O	  33.7589000000	  63.8924614650	  58.5822000000
O	  32.4821000000	  61.7433714650	  58.5352000000
C	  34.2169000000	  62.1857714650	  60.2962795662
F	  34.2085000000	  60.8734714650	  60.6153695662
F	  33.4274000000	  62.7940114650	  61.2162095662
F	  35.4225000000	  62.6283714650	  60.5552295662
S	  34.8995000000	  60.4667714650	  56.9558000000
O	  33.8268000000	  60.4222614650	  55.9991000000
O	  35.3590000000	  59.2665214650	  57.5298000000
C	  36.2118000000	  60.9518014650	  55.8064000000
F	  36.7315000000	  59.9735114650	  55.0777000000
F	  35.7347000000	  61.8251214650	  54.9510000000
F	  37.2033000000	  61.4858814650	  56.4375000000
N	  35.0096000000	  56.6602000000	  63.0002295662
S	  33.6257000000	  57.4047000000	  63.0202795662
O	  33.5008000000	  58.8012000000	  62.5282395662
O	  32.5721000000	  56.5397000000	  62.6222495662
C	  33.2733000000	  57.6225000000	  64.7321595662
F	  32.1609000000	  58.2610000000	  64.9038995662
F	  34.1280000000	  58.2628000000	  65.5186895662
F	  33.0508000000	  56.4563000000	  65.2825495662
S	  36.2663000000	  56.7646000000	  62.0547995662
O	  37.4068000000	  57.3396000000	  62.6823695662
O	  35.9437000000	  57.2398000000	  60.7132595662
C	  36.7998000000	  55.0188000000	  61.8236695662
F	  37.0764000000	  54.3129000000	  62.9032395662
F	  35.9140000000	  54.2943000000	  61.1931095662
F	  37.8669000000	  54.8801000000	  61.0763095662
