39

Li	  31.1859000000	  41.4126000000	  35.7099000000
O	  32.1800000000	  41.8516000000	  34.0502000000
O	  31.6535000000	  41.6706000000	  32.0157000000
C	  32.4180000000	  43.1705000000	  33.5860000000
C	  32.1047000000	  42.9808000000	  32.1266000000
C	  32.3745000000	  41.0016000000	  33.0099000000
H	  31.7397000000	  43.9685000000	  33.9746000000
H	  33.4680000000	  43.4206000000	  33.6620000000
H	  31.2290000000	  43.6092000000	  31.9315000000
H	  32.9267000000	  43.3381000000	  31.5265000000
H	  33.4361000000	  41.1147000000	  32.7989000000
H	  32.2565000000	  39.9421000000	  33.2754000000
O	  29.2692000000	  42.1547000000	  35.6887000000
O	  29.1748000000	  40.0071000000	  35.3507000000
C	  28.7194000000	  42.2002000000	  34.4715000000
C	  28.8107000000	  40.7046000000	  34.1205000000
C	  28.8087000000	  40.9894000000	  36.2807000000
H	  27.6895000000	  42.5591000000	  34.2934000000
H	  29.3380000000	  42.9136000000	  33.9436000000
H	  27.9622000000	  40.2924000000	  33.7105000000
H	  29.5516000000	  40.5344000000	  33.3855000000
H	  29.1785000000	  40.8239000000	  37.2885000000
H	  27.7422000000	  41.0520000000	  36.4823000000
O	  31.8717000000	  39.6063000000	  36.2228000000
O	  32.2006000000	  42.2711000000	  36.9551000000
C	  32.6552000000	  39.9241000000	  37.3511000000
C	  32.4004000000	  41.3076000000	  37.9910000000
C	  32.2747000000	  38.3828000000	  35.7040000000
C	  32.3596000000	  43.6129000000	  37.3978000000
H	  32.4761000000	  39.0991000000	  38.1093000000
H	  33.7116000000	  40.0530000000	  36.9999000000
H	  31.5832000000	  41.2613000000	  38.7740000000
H	  33.3567000000	  41.6126000000	  38.5311000000
H	  33.1480000000	  38.5399000000	  35.0818000000
H	  32.5941000000	  37.6483000000	  36.4378000000
H	  31.5069000000	  37.9570000000	  35.0402000000
H	  32.3102000000	  44.4242000000	  36.7203000000
H	  31.5778000000	  43.8146000000	  38.1822000000
H	  33.3099000000	  43.6655000000	  37.9284000000
