33

Li	  51.3001000000	  20.2968000000	  20.0804000000
O	  50.3651000000	  20.1960000000	  18.5062000000
O	  52.8318000000	  19.3930000000	  19.5973000000
C	  51.4226000000	  19.6361000000	  17.7319000000
C	  52.1844000000	  18.6143000000	  18.5856000000
C	  49.6832000000	  21.2379000000	  17.7758000000
C	  53.8287000000	  18.5898000000	  20.2224000000
H	  51.0473000000	  19.2294000000	  16.8086000000
H	  52.0551000000	  20.4727000000	  17.3117000000
H	  51.5943000000	  17.9216000000	  19.1998000000
H	  52.8754000000	  18.0546000000	  17.9570000000
H	  48.8568000000	  21.5498000000	  18.3403000000
H	  50.2160000000	  22.1482000000	  17.6356000000
H	  49.2064000000	  20.8647000000	  16.8405000000
H	  54.6486000000	  18.4113000000	  19.5362000000
H	  54.1370000000	  19.0482000000	  21.1905000000
H	  53.4858000000	  17.5142000000	  20.5419000000
S	  53.4919000000	  16.8959000000	  28.6349000000
S	  55.0110000000	  18.4518000000	  28.8366000000
S	  54.3280000000	  20.2236000000	  27.8818000000
S	  54.5270000000	  21.2679000000	  22.6111000000
S	  53.9363000000	  22.8059000000	  21.2721000000
S	  52.1460000000	  22.2978000000	  20.1201000000
S	  54.0238000000	  21.6041000000	  24.6174000000
S	  55.1109000000	  20.4044000000	  25.9838000000
S	  50.7941000000	  19.0765000000	  21.8212000000
S	  49.3566000000	  20.5476000000	  21.4071000000
S	  47.4226000000	  19.6125000000	  21.4212000000
S	  44.9091000000	  23.4754000000	  20.9447000000
S	  44.9433000000	  23.7878000000	  23.0061000000
S	  46.8026000000	  23.6519000000	  23.8548000000
S	  44.5882000000	  21.3970000000	  20.6924000000
S	  46.2623000000	  20.5364000000	  19.9282000000
