44

Li	  34.7624000000	  53.8195000000	  40.0083000000
O	  35.9899000000	  53.6500000000	  38.6933000000
O	  37.0293000000	  52.3000000000	  37.2322000000
C	  35.5298000000	  54.1520000000	  37.4326000000
C	  35.8927000000	  52.8663000000	  36.6024000000
C	  37.1562000000	  52.9300000000	  38.3716000000
H	  34.4707000000	  54.3059000000	  37.6451000000
H	  36.0079000000	  55.1236000000	  37.1302000000
H	  35.1350000000	  52.0800000000	  36.6388000000
H	  36.0761000000	  53.0964000000	  35.5229000000
H	  37.9983000000	  53.6302000000	  38.3217000000
H	  37.2485000000	  52.1690000000	  39.1051000000
O	  35.2814000000	  53.0744000000	  41.8065000000
O	  35.3301000000	  55.6201000000	  40.6083000000
C	  34.8511000000	  54.1437000000	  42.5748000000
C	  35.4154000000	  55.4408000000	  42.0315000000
C	  36.7133000000	  52.8818000000	  42.0693000000
C	  36.3029000000	  56.4564000000	  39.9740000000
H	  33.7775000000	  54.2559000000	  42.3311000000
H	  34.9792000000	  53.9436000000	  43.6192000000
H	  34.9176000000	  56.2392000000	  42.5756000000
H	  36.4182000000	  55.5363000000	  42.3411000000
H	  36.9646000000	  52.6512000000	  43.0776000000
H	  36.8710000000	  51.9595000000	  41.5322000000
H	  37.3868000000	  53.7399000000	  41.7411000000
H	  37.2119000000	  55.8829000000	  40.0505000000
H	  35.9986000000	  56.7142000000	  38.9436000000
H	  36.6423000000	  57.4163000000	  40.4217000000
O	  32.9738000000	  54.3920000000	  39.8010000000
O	  33.9841000000	  51.7995000000	  39.1616000000
C	  32.0555000000	  53.3110000000	  39.7613000000
C	  32.8625000000	  52.0058000000	  40.0627000000
C	  32.1306000000	  55.5548000000	  39.6906000000
C	  34.7386000000	  50.6677000000	  39.4282000000
H	  31.2060000000	  53.4958000000	  40.4555000000
H	  31.6540000000	  53.2640000000	  38.7429000000
H	  33.2445000000	  51.9419000000	  41.0552000000
H	  32.1980000000	  51.1888000000	  39.8881000000
H	  31.5080000000	  55.8727000000	  40.5055000000
H	  32.9346000000	  56.3074000000	  39.6397000000
H	  31.4583000000	  55.6108000000	  38.7831000000
H	  34.1397000000	  49.7760000000	  39.7689000000
H	  35.2579000000	  50.4446000000	  38.4915000000
H	  35.4502000000	  50.8024000000	  40.2376000000
