55

Li	  39.1474000000	  34.1414000000	   2.9622700000
O	  38.6409000000	  34.0405000000	   5.3676300000
O	  39.2666000000	  34.1462000000	   7.4668200000
C	  37.5399000000	  33.4549000000	   6.0283600000
C	  38.0680000000	  33.3752000000	   7.4698700000
C	  39.2203000000	  34.8928000000	   6.2795700000
H	  36.7228000000	  34.0957000000	   5.8301200000
H	  37.2530000000	  32.4501000000	   5.7028500000
H	  37.2510000000	  33.5154000000	   8.2591900000
H	  38.5307000000	  32.4041000000	   7.6453400000
H	  40.2350000000	  35.1462000000	   5.8662600000
H	  38.6525000000	  35.8535000000	   6.3947200000
O	  39.2659000000	  32.4552000000	   2.0306100000
O	  40.5218000000	  30.6977000000	   2.7763300000
C	  40.0329000000	  32.0610000000	   0.9208204338
C	  41.0762000000	  31.1093000000	   1.5643700000
C	  39.2619000000	  31.3176000000	   2.8573600000
H	  39.3912000000	  31.4124000000	   0.3208204338
H	  40.3316000000	  32.9797000000	   0.4176204338
H	  41.2940000000	  30.3132000000	   0.9624310000
H	  42.0250000000	  31.6136000000	   1.7402000000
H	  39.1078000000	  31.6054000000	   3.8827600000
H	  38.5575000000	  30.4914000000	   2.5300100000
O	  37.4300000000	  34.9920000000	   3.0621900000
O	  35.8929000000	  32.2396000000	   3.3594600000
C	  36.1040000000	  34.5507000000	   2.9257400000
C	  35.8480000000	  33.1720000000	   2.2831400000
C	  37.5617000000	  36.2766000000	   3.5361100000
C	  35.6112000000	  30.8758000000	   2.9083000000
H	  35.4964000000	  34.5996000000	   3.8384600000
H	  35.6219000000	  35.2067000000	   2.2768100000
H	  34.9014000000	  33.1325000000	   1.7178100000
H	  36.6049000000	  33.0115000000	   1.4928500000
H	  38.6204000000	  36.4652000000	   3.8139600000
H	  37.2567000000	  37.0470000000	   2.7866700000
H	  36.8661000000	  36.5449000000	   4.3363700000
H	  36.2682000000	  30.5603000000	   2.1120100000
H	  35.6281000000	  30.1925000000	   3.7430900000
H	  34.5829000000	  30.8765000000	   2.4315300000
O	  41.1000000000	  34.5107000000	   3.7365700000
O	  39.6360000000	  35.1884000000	   1.3724900000
C	  41.7052000000	  34.8980000000	   2.4724100000
C	  40.8384000000	  35.8806000000	   1.6822000000
C	  41.8739000000	  33.6439000000	   4.5029500000
C	  38.9861000000	  35.7022000000	   0.2446204338
H	  42.6770000000	  35.2743000000	   2.6668000000
H	  41.8728000000	  34.0182000000	   1.8093900000
H	  40.6913000000	  36.8378000000	   2.2042800000
H	  41.3297000000	  36.2297000000	   0.7455204338
H	  42.4908000000	  34.1641000000	   5.1508400000
H	  41.2440000000	  32.9388000000	   5.0024400000
H	  42.4824000000	  33.0788000000	   3.7646500000
H	  38.0144000000	  35.2857000000	   0.2763204338
H	  38.7910000000	  36.7560000000	   0.3924204338
H	  39.5200000000	  35.6571000000	  -0.7189795662
