59

Li	  21.4402000000	  38.1787000000	  29.3746000000
O	  22.6097000000	  39.3018000000	  30.4182000000
O	  23.0316000000	  39.8149000000	  32.5663000000
C	  23.7720000000	  38.5736000000	  30.7709000000
C	  24.1899000000	  39.1612000000	  32.1017000000
C	  22.4952000000	  40.2277000000	  31.3825000000
H	  23.4986000000	  37.5007000000	  30.9188000000
H	  24.5849000000	  38.5774000000	  30.0129000000
H	  24.5236000000	  38.2625000000	  32.7049000000
H	  25.0375000000	  39.8601000000	  32.1209000000
H	  23.0445000000	  41.0716000000	  31.0151000000
H	  21.4206000000	  40.5079000000	  31.5938000000
O	  21.1715000000	  36.1265000000	  29.8146000000
O	  23.7910000000	  36.3184000000	  28.6636000000
C	  22.0137000000	  35.0180000000	  29.5032000000
C	  22.8937000000	  35.3165000000	  28.2198000000
C	  20.1923000000	  35.6093000000	  30.7519000000
C	  24.8138000000	  36.6684000000	  27.7234000000
H	  22.7000000000	  34.8284000000	  30.3154000000
H	  21.4543000000	  34.1276000000	  29.4341000000
H	  23.4204000000	  34.4600000000	  27.8882000000
H	  22.1943000000	  35.5715000000	  27.3974000000
H	  19.7251000000	  36.5006000000	  31.1976000000
H	  19.4558000000	  34.8909000000	  30.5269000000
H	  20.8521000000	  35.2670000000	  31.5658000000
H	  25.4803000000	  35.7907000000	  27.5067000000
H	  24.3900000000	  37.0388000000	  26.7766000000
H	  25.3553000000	  37.5211000000	  28.0237000000
O	  21.1127000000	  38.1384000000	  27.6124000000
O	  21.7218000000	  39.5942000000	  24.8194000000
C	  21.6349000000	  39.4174000000	  27.2879000000
C	  22.5459000000	  39.4950000000	  25.9728000000
C	  20.0421000000	  37.6906000000	  26.8391000000
C	  22.5361000000	  39.2308000000	  23.6440000000
H	  20.8406000000	  40.1436000000	  27.0880000000
H	  22.0842000000	  39.7791000000	  28.1633000000
H	  22.8892000000	  40.4441000000	  26.1460000000
H	  23.2535000000	  38.7319000000	  25.7772000000
H	  19.2734000000	  38.5139000000	  26.6902000000
H	  20.2709000000	  37.2484000000	  25.8444000000
H	  19.5540000000	  36.9272000000	  27.3386000000
H	  23.3916000000	  39.8906000000	  23.6551000000
H	  22.7993000000	  38.1185000000	  23.7064000000
H	  21.9220000000	  39.4518000000	  22.7753000000
N	  17.6822000000	  40.8800000000	  30.7341000000
S	  18.3214000000	  39.4257000000	  30.9947000000
O	  19.5146000000	  39.1277000000	  30.2469000000
O	  18.3659000000	  39.0462000000	  32.3462000000
C	  17.0979000000	  38.3043000000	  30.3181000000
F	  17.4577000000	  37.1280000000	  30.6133000000
F	  17.0872000000	  38.3325000000	  29.0306000000
F	  15.9344000000	  38.4208000000	  30.7838000000
S	  18.0894000000	  41.9867000000	  29.7289000000
O	  17.0283000000	  42.9339000000	  29.4189000000
O	  18.9878000000	  41.6285000000	  28.6549000000
C	  19.1159000000	  42.9798000000	  30.8603000000
F	  18.4533000000	  43.3693000000	  31.9117000000
F	  20.1289000000	  42.3140000000	  31.3991000000
F	  19.6812000000	  43.9676000000	  30.2225000000
