31

Li	  44.6086000000	  32.4502000000	  36.6625000000
O	  46.0483000000	  33.6307000000	  37.3521000000
O	  45.4283000000	  35.7602000000	  37.7512000000
C	  46.5225000000	  34.4154000000	  36.2971000000
C	  46.3492000000	  35.8959000000	  36.6968000000
C	  45.7132000000	  34.5149000000	  38.3380000000
H	  47.5286000000	  34.1598000000	  36.0872000000
H	  45.9753000000	  34.2797000000	  35.3938000000
H	  47.2406000000	  36.2788000000	  37.0511000000
H	  45.9495000000	  36.5395000000	  35.9134000000
H	  45.0529000000	  34.1687000000	  39.1036000000
H	  46.6832000000	  34.6413000000	  38.8328000000
O	  45.9105000000	  30.6021000000	  33.2318000000
O	  45.6473000000	  31.8609000000	  35.2107000000
C	  46.8438000000	  30.1365000000	  34.1957000000
C	  46.9265000000	  31.2013000000	  35.3026000000
C	  45.2631000000	  31.7079000000	  33.8148000000
H	  46.5648000000	  29.2503000000	  34.7680000000
H	  47.8226000000	  29.9919000000	  33.7549000000
H	  47.0916000000	  30.9141000000	  36.2699000000
H	  47.6485000000	  31.9400000000	  35.0446000000
H	  45.6930000000	  32.6209000000	  33.3418000000
H	  44.2147000000	  31.7620000000	  33.5268000000
S	  43.1158000000	  32.0625000000	  38.1312000000
S	  43.9573000000	  30.3999000000	  39.2489000000
S	  45.8424000000	  29.9488000000	  38.5333000000
S	  47.5602000000	  25.7229000000	  39.5429000000
S	  46.9977000000	  23.9204000000	  38.7005000000
S	  44.9272000000	  23.5487000000	  38.5328000000
S	  47.8435000000	  27.1110000000	  37.9271000000
S	  46.0818000000	  28.1351000000	  37.5109000000
