48

Li	  24.3156000000	  16.5087000000	  51.9515000000
O	  25.0885000000	  17.6837000000	  53.1778000000
O	  25.7608000000	  17.5846000000	  50.4742000000
C	  26.1023000000	  18.5378000000	  52.7200000000
C	  25.9098000000	  18.8355000000	  51.2398000000
C	  24.9961000000	  17.5361000000	  54.5558000000
C	  25.2016000000	  17.9012000000	  49.2371000000
H	  26.1569000000	  19.5015000000	  53.3022000000
H	  27.1162000000	  18.1870000000	  52.9325000000
H	  25.1558000000	  19.5282000000	  51.0410000000
H	  26.7823000000	  19.3451000000	  50.8723000000
H	  24.6713000000	  18.4615000000	  55.0193000000
H	  24.2624000000	  16.7434000000	  54.8356000000
H	  25.9833000000	  17.2890000000	  55.0322000000
H	  26.0254000000	  18.3201000000	  48.5997000000
H	  24.9664000000	  16.9226000000	  48.8103000000
H	  24.2165000000	  18.4698000000	  49.3266000000
O	  25.6006000000	  15.2188000000	  51.9199000000
O	  23.6329000000	  15.6688000000	  50.2898000000
C	  25.6383000000	  14.4696000000	  50.7096000000
C	  24.2701000000	  14.3699000000	  50.1838000000
C	  26.8932000000	  15.1886000000	  52.5079000000
C	  22.3734000000	  15.7689000000	  49.6474000000
H	  26.1708000000	  15.0969000000	  49.9735000000
H	  26.1652000000	  13.5347000000	  50.7541000000
H	  24.1767000000	  13.8939000000	  49.2507000000
H	  23.6966000000	  13.6326000000	  50.7848000000
H	  27.0794000000	  14.1297000000	  52.6861000000
H	  27.7100000000	  15.5439000000	  51.8277000000
H	  26.9697000000	  15.8042000000	  53.4313000000
H	  22.3901000000	  15.4038000000	  48.6508000000
H	  21.5520000000	  15.2724000000	  50.2128000000
H	  22.0742000000	  16.8119000000	  49.6938000000
N	  20.9522000000	  17.5364000000	  53.7122000000
S	  21.7771000000	  18.7203000000	  53.0980000000
O	  22.0030000000	  19.8104000000	  54.0108000000
O	  22.7748000000	  18.3627000000	  52.1595000000
C	  20.5438000000	  19.4752000000	  52.0045000000
F	  20.8050000000	  20.7591000000	  51.8914000000
F	  19.2528000000	  19.3578000000	  52.3466000000
F	  20.4992000000	  18.9743000000	  50.7124000000
S	  21.2924000000	  16.0038000000	  53.6422000000
O	  22.6115000000	  15.6768000000	  53.1080000000
O	  20.1557000000	  15.1869000000	  53.2050000000
C	  21.4078000000	  15.5924000000	  55.3920000000
F	  22.0215000000	  14.4654000000	  55.6425000000
F	  22.1262000000	  16.4820000000	  56.0371000000
F	  20.2652000000	  15.4644000000	  56.0591000000
