33

Li	  25.2544000000	  33.2349000000	  22.5473000000
O	  25.0997000000	  32.7014000000	  20.4814000000
O	  26.3792000000	  34.5378000000	  21.5998000000
C	  25.4861000000	  33.7535000000	  19.5320000000
C	  26.5550000000	  34.6375000000	  20.1639000000
C	  24.3034000000	  31.7040000000	  19.8960000000
C	  27.1325000000	  35.4556000000	  22.3845000000
H	  25.9134000000	  33.3086000000	  18.6795000000
H	  24.7189000000	  34.3393000000	  19.1866000000
H	  27.5689000000	  34.3265000000	  19.9712000000
H	  26.4587000000	  35.6406000000	  19.8180000000
H	  24.8759000000	  30.9915000000	  19.1989000000
H	  23.8977000000	  31.0741000000	  20.7437000000
H	  23.4941000000	  32.1853000000	  19.3507000000
H	  26.6733000000	  36.4013000000	  22.2636000000
H	  26.9656000000	  35.2130000000	  23.4451000000
H	  28.2003000000	  35.4970000000	  22.1844000000
S	  19.6901000000	  43.5272000000	  21.9509000000
S	  20.5347000000	  42.4391000000	  23.5943000000
S	  22.3052000000	  41.2298000000	  22.9109000000
S	  24.4567000000	  37.0388000000	  24.1906000000
S	  24.1344000000	  35.0322000000	  24.6669000000
S	  23.3747000000	  33.9757000000	  22.9359000000
S	  22.7732000000	  38.1813000000	  24.6798000000
S	  21.9130000000	  39.1150000000	  22.9805000000
S	  23.5473000000	  24.0749000000	  25.1292000000
S	  21.7849000000	  24.8702000000	  26.0409000000
S	  21.2949000000	  26.7268000000	  25.2885000000
S	  23.8207000000	  30.7128000000	  24.6083000000
S	  25.5609000000	  30.8361000000	  23.4019000000
S	  26.9707000000	  32.3971000000	  23.7638000000
S	  23.8094000000	  29.2287000000	  26.1409000000
S	  21.8615000000	  28.3765000000	  26.5510000000
