41

Li	   7.8658300000	  53.3541000000	  47.8320000000
O	  11.4133000000	  51.1832000000	  51.4017000000
O	   8.5692600000	  51.5618000000	  49.0999000000
C	  10.4781000000	  51.7823000000	  50.5106000000
C	   9.4602100000	  50.8057000000	  49.9297000000
C	  12.6609000000	  50.9131000000	  50.8853000000
C	   7.4680200000	  50.7047000000	  48.7912000000
H	   9.9692300000	  52.5953000000	  50.9711000000
H	  11.1043000000	  52.3131000000	  49.6878000000
H	   9.9810800000	  50.1125000000	  49.2928000000
H	   8.9501200000	  50.1520000000	  50.6726000000
H	  13.0577000000	  51.9046000000	  50.7026000000
H	  13.3258000000	  50.3963000000	  51.5095000000
H	  12.5167000000	  50.4104000000	  49.9611000000
H	   6.8280700000	  50.5090000000	  49.6592000000
H	   6.8689700000	  51.2174000000	  48.0212000000
H	   7.6505100000	  49.8025000000	  48.1932000000
O	  10.0216000000	  52.2192000000	  46.6057000000
O	   8.7161400000	  54.7392000000	  47.1428000000
C	  10.5006000000	  53.4514000000	  46.1178000000
C	   9.3059300000	  54.3030000000	  45.8818000000
C	  10.9039000000	  51.0949000000	  46.3682000000
C	   9.1427200000	  56.0104000000	  47.6748000000
H	  11.0732000000	  53.9410000000	  46.9421000000
H	  11.1072000000	  53.5005000000	  45.1447000000
H	   9.3865900000	  55.0963000000	  45.2134000000
H	   8.5095100000	  53.6883000000	  45.4817000000
H	  10.8415000000	  50.9137000000	  45.3042000000
H	  11.9657000000	  51.2576000000	  46.6821000000
H	  10.3902000000	  50.2557000000	  46.8237000000
H	   9.6007400000	  56.5114000000	  46.8541000000
H	   8.3351500000	  56.6044000000	  47.9597000000
H	   9.8806700000	  55.9562000000	  48.4641000000
S	   5.4787800000	  53.4200000000	  47.4504000000
S	   5.7912600000	  55.0559000000	  48.7780000000
S	   6.9993100000	  54.4601000000	  50.3839000000
S	   4.5315700000	  51.6636000000	  54.4029000000
S	   5.6136700000	  50.5879000000	  56.0008000000
S	   6.4278000000	  51.8748000000	  57.3959000000
S	   5.6943500000	  51.8242000000	  52.6131000000
S	   5.8924300000	  53.8912000000	  52.1040000000
