41

Li	  15.2735000000	   8.4403600000	  15.2054000000
O	  15.3031000000	  10.2167000000	  14.5733000000
O	  15.7019000000	   8.9939600000	  17.0039000000
C	  16.1511000000	  10.8972000000	  15.4996000000
C	  15.9059000000	  10.4828000000	  16.9514000000
C	  15.2953000000	  10.7144000000	  13.2501000000
C	  15.4436000000	   8.6724900000	  18.3519000000
H	  17.2147000000	  10.6778000000	  15.3657000000
H	  15.9805000000	  11.9659000000	  15.4813000000
H	  16.7567000000	  10.8058000000	  17.5223000000
H	  15.0341000000	  11.0138000000	  17.3852000000
H	  16.2970000000	  10.6049000000	  12.8250000000
H	  14.6458000000	  10.0727000000	  12.7312000000
H	  14.8845000000	  11.7556000000	  13.0630000000
H	  14.3830000000	   8.6940600000	  18.5480000000
H	  15.6855000000	   7.7354500000	  18.6264000000
H	  16.0335000000	   9.3578000000	  19.0113000000
O	  13.5335000000	   5.8391400000	  17.9755000000
O	  13.4782000000	   7.7496200000	  15.5209000000
C	  14.0508000000	   5.6093400000	  16.6955000000
C	  13.2586000000	   6.3394400000	  15.6414000000
C	  12.6117000000	   4.8625300000	  18.3525000000
C	  12.8852000000	   8.3370300000	  14.3698000000
H	  15.0927000000	   5.9935600000	  16.5678000000
H	  14.1210000000	   4.5137100000	  16.5514000000
H	  13.5619000000	   5.8830200000	  14.7450000000
H	  12.2237000000	   6.0132000000	  15.6151000000
H	  12.2373000000	   5.1956300000	  19.3216000000
H	  11.7674000000	   4.8814900000	  17.6932000000
H	  13.0911000000	   3.8654600000	  18.4767000000
H	  11.8467000000	   8.0341900000	  14.2142000000
H	  12.9529000000	   9.3797700000	  14.7308000000
H	  13.4914000000	   8.2355500000	  13.4728000000
S	  15.6079000000	  13.4761000000	   6.1066400000
S	  17.5929000000	  12.9821000000	   6.6938700000
S	  17.8489000000	  10.8792000000	   7.0496700000
S	  17.0803000000	   8.1158700000	  10.8762000000
S	  17.9596000000	   7.9043600000	  12.8107000000
S	  16.5968000000	   7.1578500000	  14.2366000000
S	  18.5732000000	   8.4692400000	   9.3534200000
S	  18.6639000000	  10.5071000000	   8.9635300000
