48

Li	  52.6557000000	  40.3501000000	  16.8545000000
O	  51.9240000000	  42.1210000000	  16.7704000000
O	  51.2783000000	  40.0309000000	  14.9300000000
C	  51.7184000000	  42.3944000000	  15.3432000000
C	  50.7100000000	  41.3661000000	  14.8815000000
C	  52.5188000000	  43.2151000000	  17.5010000000
C	  50.4696000000	  39.0378000000	  14.3864000000
H	  51.0939000000	  43.2798000000	  15.3510000000
H	  52.5285000000	  42.4854000000	  14.6531000000
H	  49.8405000000	  41.2773000000	  15.4903000000
H	  50.4285000000	  41.6486000000	  13.8969000000
H	  53.5644000000	  43.3595000000	  17.1039000000
H	  51.8910000000	  44.1706000000	  17.4867000000
H	  52.6092000000	  42.8680000000	  18.5560000000
H	  50.1290000000	  39.1534000000	  13.4087000000
H	  51.0655000000	  38.1197000000	  14.4436000000
H	  49.4742000000	  38.8781000000	  14.9591000000
O	  56.3935000000	  39.5279000000	  19.7685000000
O	  54.3757000000	  40.7173000000	  17.9473000000
C	  54.9950000000	  39.5870000000	  20.0641000000
C	  54.3535000000	  40.7946000000	  19.3858000000
C	  57.0022000000	  38.4352000000	  20.4125000000
C	  55.5837000000	  41.4076000000	  17.3903000000
H	  54.5012000000	  38.7124000000	  19.7220000000
H	  54.8448000000	  39.7124000000	  21.2082000000
H	  53.3003000000	  40.8974000000	  19.7535000000
H	  54.9029000000	  41.6672000000	  19.8059000000
H	  56.7827000000	  38.6474000000	  21.4740000000
H	  56.5213000000	  37.5093000000	  20.1179000000
H	  58.0575000000	  38.2618000000	  20.2200000000
H	  56.4475000000	  40.8620000000	  17.7335000000
H	  55.3763000000	  41.4090000000	  16.2824000000
H	  55.6120000000	  42.4494000000	  17.7305000000
N	  49.9659000000	  37.5135000000	  18.1772000000
S	  50.6470000000	  38.7297000000	  18.8503000000
O	  51.7412000000	  39.1914000000	  18.0044000000
O	  49.7715000000	  39.6714000000	  19.4787000000
C	  51.5145000000	  38.0427000000	  20.3153000000
F	  51.9964000000	  39.0590000000	  20.9624000000
F	  52.4773000000	  37.2009000000	  20.0703000000
F	  50.6234000000	  37.4693000000	  21.1603000000
S	  48.4189000000	  37.4151000000	  17.8570000000
O	  47.9571000000	  38.4487000000	  16.9771000000
O	  47.6177000000	  37.0896000000	  18.9898000000
C	  48.3229000000	  35.9189000000	  16.8589000000
F	  49.0709000000	  36.0447000000	  15.7584000000
F	  48.7585000000	  34.8984000000	  17.5031000000
F	  47.0617000000	  35.6279000000	  16.5793000000
