50

Li	  26.1168000000	  14.4299000000	  46.7415000000
O	  24.4242000000	  13.8138000000	  47.2790000000
O	  22.7532000000	  12.7704000000	  48.3019000000
C	  23.9773000000	  14.5729000000	  48.3531000000
C	  23.4900000000	  13.5228000000	  49.2486000000
C	  23.5292000000	  12.7547000000	  47.1812000000
H	  24.7967000000	  15.0803000000	  48.8266000000
H	  23.1967000000	  15.2530000000	  48.1244000000
H	  24.2897000000	  13.0226000000	  49.7259000000
H	  22.8545000000	  13.8396000000	  49.9928000000
H	  22.8768000000	  12.9305000000	  46.3182000000
H	  24.0304000000	  11.7538000000	  47.0323000000
N	  24.6606000000	  18.3432000000	  46.9407000000
S	  25.9239000000	  17.7129000000	  46.2102000000
O	  26.1051000000	  16.3285000000	  46.5712000000
O	  26.0946000000	  18.0878000000	  44.8056000000
C	  27.1652000000	  18.4680000000	  47.1305000000
F	  27.1998000000	  18.0287000000	  48.3706000000
F	  26.9547000000	  19.7676000000	  47.0535000000
F	  28.3961000000	  18.2127000000	  46.6540000000
S	  23.6489000000	  19.3952000000	  46.4327000000
O	  23.3013000000	  19.1445000000	  45.0051000000
O	  23.8553000000	  20.7236000000	  46.9356000000
C	  22.1692000000	  18.7326000000	  47.2707000000
F	  21.1597000000	  19.6137000000	  47.2540000000
F	  21.7280000000	  17.7094000000	  46.6125000000
F	  22.2891000000	  18.4590000000	  48.5848000000
N	  26.9248000000	  13.4318000000	  51.0074000000
S	  27.6868000000	  13.6264000000	  49.6542000000
O	  28.7376000000	  12.6914000000	  49.3752000000
O	  26.7935000000	  13.8864000000	  48.5663000000
C	  28.4986000000	  15.1675000000	  49.8595000000
F	  27.7126000000	  16.1252000000	  50.3704000000
F	  28.9716000000	  15.7213000000	  48.7603000000
F	  29.5152000000	  15.0711000000	  50.7386000000
S	  27.4669000000	  12.8028000000	  52.3117000000
O	  28.9031000000	  12.6689000000	  52.3742000000
O	  26.7306000000	  11.7572000000	  52.9733000000
C	  27.0829000000	  14.0909000000	  53.4966000000
F	  27.6674000000	  13.7735000000	  54.6869000000
F	  27.4099000000	  15.3297000000	  53.1574000000
F	  25.8251000000	  14.2006000000	  53.7590000000
S	  27.3816000000	  13.3783000000	  45.3742000000
S	  28.5954000000	  15.1156000000	  45.4250000000
S	  29.8723000000	  14.9729000000	  43.7464000000
S	  34.4807000000	  16.1375000000	  42.4832000000
S	  36.2948000000	  17.1512000000	  42.8316000000
S	  36.4918000000	  18.6720000000	  41.2958000000
S	  33.1504000000	  16.3799000000	  44.0154000000
S	  31.8662000000	  14.7179000000	  44.3897000000
