48

Li	   4.5893000000	  34.1352000000	  28.4571000000
O	   6.5591700000	  34.0678000000	  27.9642000000
O	   4.9551300000	  35.6565000000	  29.7504000000
C	   7.0749600000	  34.5739000000	  29.1243000000
C	   6.3467600000	  35.8378000000	  29.4972000000
C	   7.3990400000	  33.0322000000	  27.4541000000
C	   4.3996400000	  36.6448000000	  30.5172000000
H	   6.9889100000	  33.8033000000	  29.8604000000
H	   8.1694800000	  34.8071000000	  29.1307000000
H	   6.9786300000	  36.1938000000	  30.2517000000
H	   6.4831000000	  36.5250000000	  28.6846000000
H	   7.5633500000	  32.2045000000	  28.0874000000
H	   6.8935700000	  32.6099000000	  26.6023000000
H	   8.3574100000	  33.3960000000	  27.2785000000
H	   4.6922600000	  37.5778000000	  30.1225000000
H	   3.3154100000	  36.5062000000	  30.4457000000
H	   4.7534300000	  36.4216000000	  31.5428000000
O	   1.8325800000	  34.0117000000	  28.5577000000
O	   3.8101200000	  35.6163000000	  27.0096000000
C	   1.4620200000	  34.8490000000	  27.4323000000
C	   2.6293500000	  35.0317000000	  26.4607000000
C	   0.7738153766	  33.8581000000	  29.4569000000
C	   4.7835700000	  35.8238000000	  25.9858000000
H	   0.4846153766	  34.4446000000	  27.0935000000
H	   1.2555400000	  35.7968000000	  27.9831000000
H	   2.9187400000	  34.0771000000	  26.0711000000
H	   2.3716000000	  35.6770000000	  25.6934000000
H	   0.9647880000	  33.0989000000	  30.2188000000
H	   0.6628153766	  34.7907000000	  30.0775000000
H	  -0.1482846234	  33.5551000000	  29.0181000000
H	   5.7331300000	  36.2542000000	  26.4125000000
H	   5.0373700000	  34.8492000000	  25.5072000000
H	   4.5372200000	  36.5548000000	  25.2767000000
N	   3.9868600000	  30.4338000000	  28.8687000000
S	   4.2482400000	  31.3859000000	  30.1468000000
O	   4.3742800000	  32.7977000000	  29.8639000000
O	   3.4454700000	  30.9890000000	  31.2467000000
C	   5.9164400000	  30.6512000000	  30.6186000000
F	   6.8343700000	  30.6750000000	  29.6779000000
F	   5.7189300000	  29.3648000000	  30.9407000000
F	   6.4581100000	  31.2161000000	  31.6595000000
S	   4.0267700000	  30.7856000000	  27.3715000000
O	   4.7248200000	  29.8735000000	  26.5636000000
O	   4.3591800000	  32.2058000000	  27.1477000000
C	   2.2800500000	  30.5335000000	  26.8762000000
F	   1.8234900000	  29.3298000000	  27.1555000000
F	   1.5097600000	  31.3594000000	  27.4564000000
F	   2.1425900000	  30.6541000000	  25.5600000000
