39

Li	   3.8762000000	   7.9810400000	  37.1575000000
O	   4.3948200000	   6.3408800000	  38.1271000000
O	   2.8515100000	   5.3420100000	  39.4253000000
C	   4.2269200000	   5.0017600000	  37.5758000000
C	   2.9139300000	   4.5516500000	  38.3178000000
C	   3.8803700000	   6.2652700000	  39.3883000000
H	   4.2499800000	   4.9037900000	  36.4650000000
H	   5.0432500000	   4.5031700000	  37.8589000000
H	   2.0286300000	   4.8259000000	  37.7482000000
H	   2.8299700000	   3.4716900000	  38.5531000000
H	   4.7434500000	   5.9454400000	  39.9602000000
H	   3.6187700000	   7.1882800000	  39.9578000000
O	   6.7799700000	   7.1921300000	  34.4797000000
O	   4.8683000000	   7.6638500000	  35.5868000000
C	   6.1417200000	   8.2111500000	  33.6847000000
C	   5.0348100000	   8.7108200000	  34.6320000000
C	   5.7576700000	   6.6922800000	  35.1995000000
H	   6.8772900000	   8.9158000000	  33.5170000000
H	   5.6993300000	   7.6640400000	  32.8512000000
H	   5.3821100000	   9.5898600000	  35.2664000000
H	   4.0529000000	   8.7661400000	  34.1600000000
H	   5.2707500000	   6.0353400000	  34.4881000000
H	   6.1736000000	   6.0833700000	  36.0754000000
S	   1.0024100000	  18.3916000000	  37.8833000000
S	   3.0291200000	  18.3362000000	  37.1652000000
S	   4.3096200000	  17.0793000000	  38.2816000000
S	   5.7933900000	  12.5586000000	  38.7977000000
S	   5.9043700000	  10.6388000000	  37.8512000000
S	   5.0777200000	   9.1286600000	  38.9728000000
S	   4.1721900000	  13.6565000000	  38.1610000000
S	   4.6213600000	  15.3012000000	  37.0626000000
S	   1.7833400000	   7.8605200000	  36.5285000000
S	   2.1650600000	   9.9357300000	  36.4739000000
S	   1.4723500000	  10.8074000000	  34.7219000000
S	   2.6626400000	  14.5352000000	  32.3437000000
S	   3.0885700000	  14.5004000000	  30.2212000000
S	   1.2266000000	  14.6783000000	  29.2142000000
S	   3.7025500000	  13.1457000000	  33.4726000000
S	   2.9804500000	  11.1734000000	  33.2747000000
