46

Li	  50.1618000000	  16.4510000000	  47.4017000000
O	  48.7285000000	  17.8357000000	  47.3007000000
O	  46.7130000000	  18.9247000000	  47.2930000000
C	  48.7801000000	  18.7183000000	  46.2230000000
C	  47.6006000000	  19.6136000000	  46.3374000000
C	  47.5974000000	  18.1624000000	  48.0680000000
H	  49.7222000000	  19.2717000000	  46.1333000000
H	  48.5531000000	  18.0136000000	  45.3860000000
H	  47.8633000000	  20.6022000000	  46.6567000000
H	  47.1154000000	  19.8389000000	  45.3767000000
H	  47.2443000000	  17.1565000000	  48.1984000000
H	  47.9780000000	  18.5859000000	  48.9874000000
O	  54.0842000000	  17.6439000000	  48.3672000000
O	  51.9402000000	  17.2670000000	  47.7348000000
C	  53.3082000000	  18.8110000000	  48.6244000000
C	  52.0015000000	  18.0932000000	  48.9418000000
C	  53.2686000000	  16.8897000000	  47.4900000000
H	  53.5469000000	  19.3362000000	  49.5141000000
H	  53.2617000000	  19.5347000000	  47.7776000000
H	  52.2132000000	  17.3930000000	  49.7845000000
H	  51.1292000000	  18.6735000000	  49.1632000000
H	  53.6158000000	  17.2220000000	  46.4751000000
H	  53.4117000000	  15.8581000000	  47.7090000000
N	  51.6543000000	  17.0458000000	  42.8449000000
S	  52.0239000000	  16.1889000000	  44.0510000000
O	  53.4504000000	  16.1275000000	  44.2600000000
O	  51.1444000000	  16.3706000000	  45.1910000000
C	  51.6449000000	  14.5276000000	  43.3818000000
F	  52.4798000000	  14.1922000000	  42.4323000000
F	  50.4141000000	  14.4033000000	  42.9568000000
F	  51.7465000000	  13.6063000000	  44.3006000000
S	  52.0733000000	  18.5022000000	  42.5004000000
O	  53.0433000000	  18.7937000000	  41.4672000000
O	  52.0326000000	  19.3774000000	  43.6349000000
C	  50.5577000000	  19.1618000000	  41.7628000000
F	  49.5132000000	  19.1128000000	  42.5188000000
F	  50.6926000000	  20.4595000000	  41.3532000000
F	  50.2980000000	  18.5184000000	  40.6659000000
S	  49.6973000000	  15.3217000000	  49.2044000000
S	  50.0686000000	  13.9529000000	  47.5806000000
S	  48.6214000000	  14.3572000000	  46.2183000000
S	  44.6334000000	  12.2486000000	  43.7797000000
S	  43.7437000000	  12.9584000000	  42.0231000000
S	  41.5719000000	  12.5904000000	  42.1311000000
S	  45.4091000000	  13.8017000000	  44.8947000000
S	  46.9016000000	  13.1734000000	  46.2663000000
