39

Li	  51.7934000000	  47.0277000000	  38.5029000000
O	  50.6993000000	  47.9246000000	  37.0704000000
O	  48.7342000000	  48.3926000000	  36.0363000000
C	  49.8989000000	  48.9270000000	  37.8711000000
C	  48.5027000000	  48.6383000000	  37.4707000000
C	  49.9588000000	  47.8346000000	  35.8930000000
H	  50.0302000000	  48.7655000000	  38.9365000000
H	  50.0914000000	  49.9378000000	  37.5532000000
H	  48.1673000000	  47.7626000000	  37.9171000000
H	  47.8335000000	  49.5196000000	  37.6578000000
H	  50.4750000000	  48.3834000000	  35.0841000000
H	  49.7717000000	  46.8028000000	  35.5748000000
O	  52.6172000000	  45.9782000000	  37.1978000000
O	  51.7429000000	  45.1391000000	  35.2782000000
C	  53.4469000000	  46.5654000000	  36.2067000000
C	  52.9623000000	  45.9220000000	  34.8801000000
C	  51.9051000000	  44.9093000000	  36.6130000000
H	  53.4145000000	  47.5993000000	  36.3408000000
H	  54.4228000000	  46.1833000000	  36.4666000000
H	  52.6541000000	  46.6571000000	  34.1873000000
H	  53.6593000000	  45.2291000000	  34.3625000000
H	  52.5323000000	  43.9891000000	  36.5852000000
H	  50.9680000000	  44.6290000000	  37.1615000000
S	  50.5295000000	  45.9622000000	  39.6791000000
S	  48.5884000000	  45.1009000000	  39.7592000000
S	  48.0386000000	  44.1211000000	  37.9103000000
S	  44.2047000000	  43.9243000000	  34.8258000000
S	  42.1319000000	  43.9401000000	  34.5401000000
S	  41.1549000000	  42.0737000000	  35.0201000000
S	  44.8003000000	  44.6434000000	  36.6932000000
S	  46.8483000000	  45.2842000000	  36.7006000000
S	  53.2668000000	  48.3165000000	  39.3188000000
S	  54.6387000000	  47.2466000000	  40.5290000000
S	  53.9097000000	  45.4042000000	  41.2379000000
S	  57.9503000000	  43.2290000000	  42.4340000000
S	  58.9057000000	  41.3807000000	  42.1655000000
S	  58.8929000000	  40.9704000000	  40.1242000000
S	  55.7898000000	  42.9389000000	  42.8189000000
S	  54.7344000000	  44.7874000000	  43.1087000000
