25

Li	  17.6929000000	   2.1510200000	  58.6063000000
O	  17.1823000000	   1.8099900000	  56.9379000000
O	  18.7020000000	   0.5505585350	  58.8754000000
C	  18.2699000000	   1.0435400000	  56.4938000000
C	  18.6203000000	   0.0326585350	  57.5340000000
C	  16.7411000000	   2.8026500000	  56.0437000000
C	  19.2303000000	  -0.4591414650	  59.7646595662
H	  18.0842000000	   0.6876585350	  55.4666000000
H	  19.0862000000	   1.7445700000	  56.4504000000
H	  17.7967000000	  -0.7082414650	  57.5355000000
H	  19.5225000000	  -0.5312414650	  57.2627000000
H	  16.4329000000	   2.3383300000	  55.1545000000
H	  15.8654000000	   3.2631300000	  56.4626000000
H	  17.5299000000	   3.5952700000	  55.8713000000
H	  19.6779000000	   0.1072585350	  60.6467995662
H	  18.5169000000	  -1.1052414650	  60.2195395662
H	  20.0327000000	  -1.0276414650	  59.2570695662
S	  16.0015000000	   2.5616500000	  60.3807295662
S	  14.5894000000	   2.9986900000	  58.8523000000
S	  14.3781000000	   5.0608100000	  58.6340000000
S	  18.7801000000	   6.5699000000	  57.2031000000
S	  19.5216000000	   5.7242700000	  59.0534000000
S	  19.2648000000	   3.6472200000	  59.2943195662
S	  16.8269000000	   7.2795200000	  57.4730000000
S	  15.3255000000	   5.9871000000	  57.0430000000
