41

Li	  34.6044000000	   6.7749700000	  11.2219000000
O	  33.4406000000	   9.6565200000	  10.8810000000
O	  32.4764000000	   6.9153300000	  10.9486000000
C	  32.6876000000	   9.1087900000	   9.8434700000
C	  31.7727000000	   7.9906700000	  10.3760000000
C	  34.0565000000	  10.8916000000	  10.5631000000
C	  31.4097000000	   6.0434100000	  11.3579000000
H	  31.9807000000	   9.8110800000	   9.2585600000
H	  33.2610000000	   8.5823700000	   9.1476500000
H	  31.0347000000	   8.4217300000	  11.0358000000
H	  31.1461000000	   7.5996000000	   9.5754600000
H	  33.4422000000	  11.7240000000	  10.1278000000
H	  34.5642000000	  11.2040000000	  11.4853000000
H	  34.8062000000	  10.6767000000	   9.7777900000
H	  31.8136000000	   5.0692700000	  11.7358000000
H	  30.8987000000	   6.4341000000	  12.2063000000
H	  30.6663000000	   5.8076800000	  10.5048000000
O	  35.1951000000	   7.7544300000	  12.8580000000
O	  36.0860000000	   7.7091000000	  10.4099000000
C	  36.4018000000	   8.4341700000	  12.6464000000
C	  36.9924000000	   7.6201400000	  11.5384000000
C	  34.2917000000	   8.5276700000	  13.7156000000
C	  36.7531000000	   7.3844100000	   9.1632400000
H	  36.2783000000	   9.4771000000	  12.4682000000
H	  37.1546000000	   8.4204300000	  13.4682000000
H	  38.0149000000	   8.0701000000	  11.3202000000
H	  37.2588000000	   6.5944500000	  11.8639000000
H	  34.6152000000	   8.5168500000	  14.7449000000
H	  34.1971000000	   9.5638700000	  13.4312000000
H	  33.3748000000	   7.9807400000	  13.5700000000
H	  37.6946000000	   7.8782000000	   9.0108200000
H	  36.8624000000	   6.3033600000	   9.1953400000
H	  36.0254000000	   7.5296200000	   8.3530600000
S	  41.5607000000	   4.9098500000	  18.5207000000
S	  40.3092000000	   3.6393100000	  17.3487000000
S	  38.2422000000	   4.0456600000	  17.7374000000
S	  36.0835000000	   3.9454700000	  12.8408000000
S	  34.4322000000	   4.8941200000	  12.0424000000
S	  34.3261000000	   4.7421000000	   9.9386200000
S	  36.6630000000	   4.8833700000	  14.6606000000
S	  37.0078000000	   3.4239500000	  16.1429000000
