36

Li	  22.6802000000	  28.4970000000	  55.9714000000
O	  23.2938000000	  27.6420000000	  54.4235000000
O	  23.5433000000	  29.0567000000	  52.7655000000
C	  22.3628000000	  27.1504000000	  53.4658000000
C	  22.5660000000	  28.1054000000	  52.3073000000
C	  24.2190000000	  28.3701000000	  53.7864000000
H	  22.4846000000	  26.1357000000	  53.2274000000
H	  21.3643000000	  27.4131000000	  54.0075000000
H	  22.9869000000	  27.6094000000	  51.4607000000
H	  21.6790000000	  28.5323000000	  51.8649000000
H	  24.7816000000	  29.1070000000	  54.5232000000
H	  25.0111000000	  27.8421000000	  53.3220000000
O	  23.2298000000	  27.6212000000	  57.6530000000
O	  20.6182000000	  27.0377000000	  56.9309000000
C	  22.2943000000	  27.4110000000	  58.7108000000
C	  21.2104000000	  26.5288000000	  58.1306000000
C	  24.2288000000	  26.5920000000	  57.3625000000
C	  19.5998000000	  27.9744000000	  57.2380000000
H	  22.7998000000	  26.8095000000	  59.4919495662
H	  22.0008000000	  28.2605000000	  59.1903595662
H	  21.7333000000	  25.6368000000	  57.8986000000
H	  20.4315000000	  26.3377000000	  58.8568000000
H	  25.0034000000	  26.4951000000	  58.0965000000
H	  23.8215000000	  25.6082000000	  57.3489000000
H	  24.6035000000	  26.7718000000	  56.3497000000
H	  19.0548000000	  28.3705000000	  56.3851000000
H	  18.8501000000	  27.4634000000	  57.8898000000
H	  19.9458000000	  28.8105000000	  57.7150000000
S	  12.8634000000	  29.3656000000	  57.4346000000
S	  14.0806000000	  30.6989000000	  58.5660000000
S	  15.7548000000	  31.2532000000	  57.3993000000
S	  20.1474000000	  32.3106000000	  57.7848000000
S	  21.9239000000	  31.1315000000	  57.5850000000
S	  22.0441000000	  30.5639000000	  55.4795000000
S	  18.7727000000	  31.4528000000	  59.0230000000
S	  17.4766000000	  30.2240000000	  57.9556000000
