58

Li	  52.7387000000	  18.7277000000	  45.7746000000
O	  51.5187000000	  17.5528000000	  46.4595000000
O	  50.3630000000	  15.6471000000	  46.8048000000
C	  50.1842000000	  17.9091000000	  46.5085000000
C	  49.4668000000	  16.6234000000	  46.2645000000
C	  51.4548000000	  16.3528000000	  47.1508000000
H	  49.8981000000	  18.2148000000	  47.5146000000
H	  49.9246000000	  18.6041000000	  45.6842000000
H	  48.4543000000	  16.6792000000	  46.6660000000
H	  49.3017000000	  16.4616000000	  45.1804000000
H	  52.3548000000	  15.7654000000	  47.1133000000
H	  51.3659000000	  16.5779000000	  48.2268000000
O	  54.6527000000	  19.0363000000	  45.4858000000
O	  52.8296000000	  17.4315000000	  44.1196000000
C	  54.9909000000	  18.6564000000	  44.1322000000
C	  54.2708000000	  17.3226000000	  43.9540000000
C	  55.1457000000	  20.2842000000	  45.8352000000
C	  52.0887000000	  16.3177000000	  43.6487000000
H	  54.9200000000	  19.3972000000	  43.2778000000
H	  56.0504000000	  18.2751000000	  44.1454000000
H	  54.5151000000	  16.9669000000	  42.9826000000
H	  54.6781000000	  16.5886000000	  44.6305000000
H	  54.7288000000	  20.9961000000	  45.1224000000
H	  54.9940000000	  20.4983000000	  46.8565000000
H	  56.1995000000	  20.2271000000	  45.6601000000
H	  52.2453000000	  16.3022000000	  42.5403000000
H	  52.5729000000	  15.4146000000	  44.0428000000
H	  51.0811000000	  16.2193000000	  44.0445000000
N	  51.9526000000	  20.6608000000	  42.2484000000
S	  52.2181000000	  19.9262000000	  40.9038000000
O	  53.6150000000	  19.9673000000	  40.5752000000
O	  51.5587000000	  18.6447000000	  40.7299000000
C	  51.3369000000	  20.8908000000	  39.5658000000
F	  51.6617000000	  20.5502000000	  38.3218000000
F	  51.5445000000	  22.1648000000	  39.7120000000
F	  50.0151000000	  20.7370000000	  39.6617000000
S	  51.0830000000	  20.2669000000	  43.4654000000
O	  51.9108000000	  19.9940000000	  44.5994000000
O	  49.9927000000	  19.4071000000	  43.2177000000
C	  50.3149000000	  21.8725000000	  43.8028000000
F	  49.8589000000	  22.2833000000	  42.6273000000
F	  49.2463000000	  21.7763000000	  44.5503000000
F	  51.1289000000	  22.7714000000	  44.3136000000
N	  53.1094000000	  19.2698000000	  49.7319000000
S	  52.1169000000	  20.1132000000	  48.8914000000
O	  52.6024000000	  20.3071000000	  47.4895000000
O	  50.7426000000	  19.8046000000	  49.1942000000
C	  52.2737000000	  21.7686000000	  49.6635000000
F	  51.7751000000	  21.8883000000	  50.8567000000
F	  51.5716000000	  22.6265000000	  48.9493000000
F	  53.4997000000	  22.2686000000	  49.7360000000
S	  54.1131000000	  18.2576000000	  49.2277000000
O	  55.4178000000	  18.8072000000	  49.3474000000
O	  53.7876000000	  17.6392000000	  47.9485000000
C	  53.9860000000	  16.8002000000	  50.3655000000
F	  54.3517000000	  17.1620000000	  51.6272000000
F	  52.8164000000	  16.2403000000	  50.4979000000
F	  54.8056000000	  15.8429000000	  50.0117000000
