31

Li	   6.7933200000	  46.6439000000	  57.0176000000
O	   7.1258200000	  44.8093000000	  56.7554000000
O	   8.2862800000	  42.9287000000	  56.3954000000
C	   6.9529900000	  44.0386000000	  57.9526000000
C	   7.4322900000	  42.6565000000	  57.5059000000
C	   7.5429700000	  43.9735000000	  55.8161000000
H	   7.5857800000	  44.4288000000	  58.7745000000
H	   5.8838900000	  44.2835000000	  58.2679000000
H	   7.9836300000	  42.1485000000	  58.2788000000
H	   6.5715100000	  41.9853000000	  57.0749000000
H	   6.6812100000	  43.6039000000	  55.2998000000
H	   8.2252600000	  44.3791000000	  55.0568000000
O	   9.1428200000	  49.4279000000	  56.5152000000
O	   7.9063900000	  47.6833000000	  55.9384000000
C	  10.0400000000	  48.3819000000	  56.6545000000
C	   9.0662000000	  47.1573000000	  56.5807000000
C	   8.2076200000	  48.9653000000	  55.5913000000
H	  10.6831000000	  48.4017000000	  55.7537000000
H	  10.5889000000	  48.4516000000	  57.5515000000
H	   9.5132100000	  46.3195000000	  56.0252000000
H	   8.8034900000	  46.7693000000	  57.5923000000
H	   7.3063000000	  49.5143000000	  55.5853000000
H	   8.7770100000	  48.9696000000	  54.6065000000
S	   6.4642900000	  47.0139000000	  59.3679995662
S	   4.9665300000	  48.0099000000	  58.2029000000
S	   4.4383200000	  46.6666000000	  56.6586000000
S	  -0.0954846234	  46.1199000000	  58.4337000000
S	  -2.1083846234	  45.6457000000	  58.1364000000
S	  -2.5485846234	  43.7491000000	  58.8216000000
S	   1.1338400000	  45.7391000000	  56.7436000000
S	   3.1697000000	  45.2783000000	  57.2414000000
