51

Li	   1.1751200000	  21.0459000000	   9.0347900000
O	   0.0310153766	  22.4295000000	   9.1102600000
O	  -1.4455846234	  24.1787000000	   8.8569800000
C	   0.5533153766	  23.7037000000	   9.5985100000
C	  -0.5991846234	  24.6354000000	   9.8756400000
C	  -1.2792846234	  22.7873000000	   8.8229700000
H	   1.0751300000	  23.4789000000	  10.5346000000
H	   1.1828700000	  24.1231000000	   8.8223900000
H	  -1.0181846234	  24.4514000000	  10.8369000000
H	  -0.1620846234	  25.6485000000	   9.8423100000
H	  -1.6364846234	  22.5378000000	   7.8995200000
H	  -1.8886846234	  22.3683000000	   9.7007500000
O	   2.6073500000	  21.7881000000	   8.3340600000
O	   5.0222900000	  19.9023000000	   7.4734800000
C	   3.8418900000	  21.4950000000	   8.9544300000
C	   4.2392300000	  20.0467000000	   8.7017500000
C	   2.7466900000	  22.1106000000	   7.0128400000
C	   6.0369300000	  18.9136000000	   7.3288500000
H	   4.6688600000	  22.2453000000	   8.7473800000
H	   3.7744700000	  21.4481000000	  10.0248000000
H	   4.9155400000	  19.5881000000	   9.3798100000
H	   3.3579400000	  19.4124000000	   8.6705500000
H	   3.2630900000	  21.3752000000	   6.3925200000
H	   1.7430200000	  22.1586000000	   6.6400600000
H	   3.2423400000	  23.0957000000	   6.8615100000
H	   6.9072000000	  19.1951000000	   7.9209400000
H	   5.7573400000	  17.8969000000	   7.6870100000
H	   6.3903300000	  18.9111000000	   6.2945000000
N	  -0.3235846234	  18.7601000000	   5.3057200000
S	   0.5197153766	  19.4969000000	   4.2008500000
O	  -0.0294846234	  19.2900000000	   2.8895400000
O	   0.8898153766	  20.8297000000	   4.6239200000
C	   2.0490200000	  18.5296000000	   4.1292600000
F	   2.8788100000	  19.0946000000	   3.2160600000
F	   1.8767600000	  17.2603000000	   3.7719200000
F	   2.6094700000	  18.4841000000	   5.3537100000
S	  -0.6784846234	  19.2417000000	   6.7431500000
O	  -2.0163846234	  19.7282000000	   6.9488900000
O	   0.3851153766	  19.8931000000	   7.4721000000
C	  -0.6755846234	  17.5804000000	   7.5541700000
F	  -1.5705846234	  16.7479000000	   7.0518400000
F	   0.5258153766	  16.9793000000	   7.4894300000
F	  -0.9863846234	  17.6060000000	   8.8510400000
S	   1.4958200000	  20.9070000000	  20.3413000000
S	   0.3927153766	  20.9677000000	  18.5543000000
S	  -0.1883846234	  22.8715000000	  17.7981000000
S	  -0.9031846234	  21.9173000000	  12.6293000000
S	  -0.5467846234	  19.9080000000	  12.0415000000
S	   1.0639600000	  19.5892000000	  10.6730000000
S	   0.1329153766	  22.5210000000	  14.4001000000
S	  -1.1704846234	  22.7188000000	  15.9100000000
