33

Li	  55.5424000000	  20.9881000000	  35.7125000000
O	  56.9723000000	  20.0350000000	  35.0708000000
O	  56.1675000000	  23.0468000000	  34.7350000000
C	  57.6330000000	  21.0921000000	  34.3024000000
C	  57.4094000000	  22.5354000000	  34.8845000000
C	  57.2517000000	  18.7361000000	  34.5461000000
C	  56.0053000000	  24.3521000000	  35.3360000000
H	  58.6982000000	  20.8552000000	  34.2944000000
H	  57.3536000000	  21.0869000000	  33.2040000000
H	  57.7801000000	  22.6542000000	  35.8774000000
H	  58.1238000000	  23.2201000000	  34.3454000000
H	  56.6867000000	  17.9793000000	  35.0390000000
H	  57.0015000000	  18.5966000000	  33.5465000000
H	  58.3037000000	  18.4757000000	  34.6204000000
H	  55.8175000000	  24.2282000000	  36.4223000000
H	  56.8378000000	  25.0386000000	  35.2006000000
H	  55.1284000000	  24.7929000000	  34.8508000000
S	  55.3279000000	  21.6020000000	  37.8637000000
S	  55.0368000000	  19.5784000000	  37.6640000000
S	  56.3038000000	  18.5738000000	  39.0168000000
S	  58.8937000000	  14.6953000000	  39.8690000000
S	  60.8607946234	  13.8966000000	  39.7424000000
S	  61.0186046234	  11.7632000000	  39.6705000000
S	  58.3393000000	  15.7187000000	  38.0522000000
S	  58.1671000000	  17.7892000000	  38.2640000000
S	  53.5655000000	  20.3675000000	  34.1840000000
S	  54.5176000000	  20.5964000000	  32.3168000000
S	  54.2468000000	  22.5795000000	  31.8093000000
S	  52.3495000000	  20.9389000000	  27.6176000000
S	  51.7914000000	  19.1259000000	  28.7124000000
S	  49.6749000000	  18.8200000000	  28.6910000000
S	  52.5901000000	  22.5971000000	  28.8396000000
S	  54.4006000000	  22.7519000000	  29.6805000000
