45

Li	   2.1575500000	  14.5710000000	  19.1355000000
O	   3.7639300000	  12.3359000000	  21.6492000000
O	   3.5762000000	  13.8144000000	  20.1126000000
C	   4.3054600000	  13.4323000000	  22.2970000000
C	   4.2341900000	  14.4524000000	  21.1568000000
C	   3.9476700000	  12.5022000000	  20.2917000000
H	   3.7586700000	  13.8578000000	  23.0616000000
H	   5.3603000000	  13.2187000000	  22.5364000000
H	   3.6044200000	  15.2546000000	  21.5631000000
H	   5.1910200000	  14.8693000000	  20.8721000000
H	   4.9817000000	  12.3030000000	  20.0191000000
H	   3.3258500000	  11.7619000000	  19.7409000000
P	   0.1970469614	  13.1833000000	  18.5418000000
F	  -0.1626530386	   9.4306600000	  16.3123000000
F	  -0.3973530386	  10.0716000000	  18.4336000000
F	  -0.9573530386	  11.3620000000	  16.8530000000
F	   0.8567469614	  11.2147000000	  20.9728000000
F	   0.0475469614	  11.9587000000	  22.8450000000
F	  -1.2445530386	  11.8368000000	  21.1324000000
F	  -1.0589530386	  15.6920000000	  15.1647000000
F	  -1.5990530386	  13.7059000000	  15.8863000000
F	  -1.2802530386	  15.5306000000	  17.2522000000
O	   1.4306600000	  12.0469000000	  18.3649000000
O	   0.7331469614	  13.8968000000	  19.9493000000
O	   0.9939469614	  14.2789000000	  17.5846000000
C	   1.3219469614	  11.1607000000	  17.2700000000
C	   0.2319469614	  13.5523000000	  21.2452000000
C	   0.6437469614	  14.5090000000	  16.2238000000
C	  -0.0244530386	  10.4457000000	  17.2216000000
C	  -0.0088530386	  12.0599000000	  21.4852000000
C	  -0.8645530386	  14.8426000000	  16.1554000000
H	   1.6003000000	  11.5448000000	  16.2986000000
H	   2.1504900000	  10.4395000000	  17.4909000000
H	   0.9999469614	  13.8365000000	  21.9903000000
H	  -0.6019530386	  14.1580000000	  21.5989000000
H	   1.2314469614	  15.3519000000	  15.7700000000
H	   0.8524469614	  13.7250000000	  15.5318000000
S	  12.8933000000	  17.2019000000	  19.6750000000
S	  11.4891000000	  16.0761000000	  20.7987000000
S	  10.3557000000	  14.5804000000	  19.7715000000
S	   5.3557200000	  14.7420000000	  17.6606000000
S	   3.8443600000	  16.1560000000	  17.4439000000
S	   2.7852600000	  16.6146000000	  19.2281000000
S	   7.4236600000	  15.3714000000	  17.6555000000
S	   8.3032400000	  15.0342000000	  19.6002000000
