64

Li	  38.6043000000	   2.5511300000	  33.8465000000
P	  36.4893000000	   0.9549093113	  33.6206000000
F	  35.9827000000	  -2.3724906887	  34.2803000000
F	  34.7882000000	  -1.5600906887	  32.6138000000
F	  35.9194000000	  -3.2973906887	  32.1612000000
F	  35.6621000000	  -0.3332906887	  36.2116000000
F	  37.0081000000	  -0.1854906887	  37.9315000000
F	  36.5708000000	   1.5604200000	  36.7928000000
F	  34.4757000000	   3.4359400000	  30.7114000000
F	  34.2718000000	   1.7277200000	  31.8376000000
F	  34.7541000000	   3.6291800000	  32.8628000000
O	  37.0342000000	  -0.0898906887	  32.4077000000
O	  37.6787000000	   1.1528093113	  34.7132000000
O	  36.9907000000	   2.3697500000	  32.9227000000
C	  37.1974000000	  -1.5423906887	  32.4970000000
C	  37.8727000000	   0.2557093113	  35.8302000000
C	  36.4170000000	   2.5641100000	  31.6256000000
C	  35.9249000000	  -2.1746906887	  32.9351000000
C	  36.7121000000	   0.2727093113	  36.7200000000
C	  34.9349000000	   2.8278700000	  31.8031000000
H	  37.4891000000	  -1.8674906887	  31.4978000000
H	  37.9763000000	  -1.8868906887	  33.1469000000
H	  37.8560000000	  -0.7665906887	  35.4752000000
H	  38.8403000000	   0.4290093113	  36.3416000000
H	  36.7989000000	   3.4560400000	  31.1959000000
H	  36.5681000000	   1.7637300000	  30.8942000000
N	  38.4561000000	   4.0544200000	  37.5963000000
S	  37.2128000000	   4.7009000000	  36.8663000000
O	  37.1491000000	   4.5790700000	  35.4198000000
O	  35.9772000000	   4.5479500000	  37.5623000000
C	  37.5072000000	   6.5354100000	  36.9401000000
F	  38.3536000000	   7.0258000000	  35.9835000000
F	  38.0493000000	   6.9252200000	  38.0941000000
F	  36.3880000000	   7.2985100000	  36.8203000000
S	  39.6626000000	   3.3188600000	  36.8714000000
O	  39.3610000000	   2.9795800000	  35.5035000000
O	  40.4181000000	   2.4416200000	  37.7799000000
C	  40.8126000000	   4.6697900000	  36.7917000000
F	  40.8810000000	   5.2520700000	  37.9690000000
F	  41.9788000000	   4.2502800000	  36.4761000000
F	  40.5094000000	   5.6698700000	  36.0007000000
N	  41.4430000000	  -0.9792906887	  33.7901000000
S	  41.6227000000	   0.4405093113	  33.1196000000
O	  40.5384000000	   1.3811800000	  33.3805000000
O	  42.9603000000	   0.8760093113	  33.1844000000
C	  41.4098000000	   0.1347093113	  31.2966000000
F	  40.2394000000	  -0.4147906887	  31.0901000000
F	  42.2950000000	  -0.6825906887	  30.8113000000
F	  41.5283000000	   1.2534093113	  30.6195000000
S	  41.3000000000	  -1.3460906887	  35.3093000000
O	  40.1299000000	  -2.1438906887	  35.6407000000
O	  41.6635000000	  -0.2868906887	  36.2440000000
C	  42.7256000000	  -2.4637906887	  35.4196000000
F	  42.4581000000	  -3.6010906887	  34.7706000000
F	  43.7253000000	  -1.8807906887	  34.8349000000
F	  43.1038000000	  -2.8111906887	  36.6800000000
S	  39.6032000000	   2.2959800000	  23.7489000000
S	  39.2353000000	   3.8219800000	  25.1304000000
S	  40.6806000000	   5.3346500000	  25.1640000000
S	  41.9260000000	   4.6055700000	  30.1363000000
S	  40.0404000000	   3.9394600000	  30.8217000000
S	  39.6518000000	   4.3643400000	  32.8668000000
S	  41.9871000000	   5.9004100000	  28.3979000000
S	  42.2238000000	   4.8169000000	  26.5346000000
