34

Li	  13.6306000000	  28.4338000000	  23.7253000000
P	  12.8758000000	  29.6265000000	  21.6874000000
F	  14.9145000000	  33.4957000000	  21.9727000000
F	  13.4383000000	  32.3000000000	  21.0455000000
F	  13.0595000000	  32.9496000000	  23.0614000000
F	  12.2412000000	  28.3499000000	  19.1536000000
F	  14.3155000000	  27.8111000000	  19.3162000000
F	  12.9367000000	  26.3354000000	  18.9606000000
F	   8.5773400000	  30.4868000000	  21.2701000000
F	  10.5338000000	  31.3362000000	  21.2567000000
F	  10.0733000000	  29.4906000000	  20.0949000000
O	  13.8441000000	  30.0981000000	  22.9412000000
O	  13.4167000000	  28.0857000000	  21.8946000000
O	  11.6499000000	  29.4948000000	  22.7746000000
C	  14.7207000000	  31.2819000000	  22.7478000000
C	  12.8973000000	  27.0349000000	  21.1076000000
C	  10.2846000000	  29.3088000000	  22.4037000000
C	  14.0273000000	  32.5333000000	  22.2258000000
C	  13.0769000000	  27.4052000000	  19.5990000000
C	   9.8526000000	  30.1624000000	  21.2037000000
H	  15.1065000000	  31.5410000000	  23.7135000000
H	  15.5755000000	  30.9682000000	  22.1607000000
H	  13.5362000000	  26.1260000000	  21.3283000000
H	  11.8648000000	  26.8159000000	  21.3299000000
H	  10.0888000000	  28.2164000000	  22.3267000000
H	   9.6021500000	  29.6579000000	  23.2150000000
S	  12.9002000000	  27.2192000000	  25.3399000000
S	  14.8036000000	  26.4425000000	  24.8499000000
S	  16.0036000000	  28.0833000000	  24.1740000000
S	  21.1255000000	  28.2041000000	  25.4231000000
S	  22.5832000000	  28.3630000000	  23.9473000000
S	  24.2861000000	  29.2087000000	  24.8458000000
S	  19.3902000000	  27.2541000000	  24.6435000000
S	  17.6171000000	  28.0049000000	  25.5077000000
