56

Li	  30.2394000000	   2.5510700000	  29.8222000000
P	  28.5680000000	   4.1384500000	  29.4242000000
F	  26.6973000000	   5.2579100000	  31.3197000000
F	  25.9115000000	   3.2180800000	  31.4166000000
F	  26.1184000000	   4.3770300000	  33.1478000000
F	  30.9410000000	   7.8039000000	  30.0838000000
F	  29.4393000000	   6.9558000000	  28.6536000000
F	  29.1498000000	   6.8750700000	  30.7326000000
F	  27.0736000000	   2.2878900000	  26.2562000000
F	  25.8652000000	   1.2433093113	  27.6424000000
F	  26.2293000000	   3.3813600000	  27.9660000000
O	  28.8182000000	   3.3650800000	  30.8750000000
O	  30.2002000000	   4.3629800000	  29.3441000000
O	  28.8791000000	   2.7308800000	  28.6308000000
C	  28.1540000000	   3.7812400000	  32.1319000000
C	  30.8670000000	   5.4829100000	  29.9807000000
C	  27.9623000000	   1.7359900000	  28.3896000000
C	  26.7198000000	   4.1433800000	  31.9956000000
C	  30.0950000000	   6.7584600000	  29.8382000000
C	  26.7312000000	   2.1998600000	  27.5235000000
H	  28.2585000000	   3.0830100000	  32.9815000000
H	  28.5370000000	   4.7915300000	  32.4641000000
H	  31.0010000000	   5.3731400000	  31.0792000000
H	  31.8579000000	   5.5751600000	  29.5007000000
H	  28.5840000000	   0.8541093113	  27.9606000000
H	  27.6585000000	   1.3714800000	  29.3781000000
N	  33.7124000000	   3.1035000000	  32.1082000000
S	  32.9002000000	   1.8162200000	  31.6726000000
O	  31.6821000000	   2.1219300000	  30.8943000000
O	  33.6195000000	   0.5965093113	  31.3396000000
C	  32.0956000000	   1.4904000000	  33.2503000000
F	  32.9829000000	   1.3647300000	  34.1993000000
F	  31.2489000000	   0.4664093113	  33.2666000000
F	  31.3229000000	   2.5256000000	  33.5309000000
S	  34.3361000000	   4.1025700000	  31.0186000000
O	  33.7181000000	   5.3970200000	  31.0855000000
O	  34.6060000000	   3.5190800000	  29.7343000000
C	  36.0786000000	   4.3038800000	  31.6107000000
F	  36.2088000000	   4.7831200000	  32.8437000000
F	  36.6721000000	   3.1126700000	  31.6116000000
F	  36.6959000000	   5.1862700000	  30.8693000000
N	  32.0792000000	  -0.2524906887	  27.5246000000
S	  31.3717000000	  -1.0450906887	  28.7209000000
O	  32.0965000000	  -2.1331906887	  29.2690000000
O	  30.6254000000	  -0.2115906887	  29.6055000000
C	  30.0943000000	  -1.9371906887	  27.7928000000
F	  30.6289000000	  -2.6509906887	  26.8292000000
F	  29.0558000000	  -1.2411906887	  27.2673000000
F	  29.4140000000	  -2.8264906887	  28.5247000000
S	  32.6152000000	   1.2155093113	  27.4264000000
O	  34.0587000000	   1.3401400000	  27.3822000000
O	  31.8940000000	   2.1963700000	  28.2356000000
C	  32.0642000000	   1.6995600000	  25.7645000000
F	  32.7925000000	   1.1530093113	  24.8062000000
F	  30.8152000000	   1.2535093113	  25.6005000000
F	  32.0969000000	   2.9997000000	  25.5336000000
