67

Li	   4.1137700000	  34.7955000000	  41.1376000000
O	   5.5292700000	  34.2151000000	  37.8466000000
O	   5.4536300000	  35.0379000000	  39.8480000000
C	   5.4660200000	  35.5947000000	  37.6249000000
C	   5.1307600000	  36.1292000000	  39.0043000000
C	   6.0591200000	  34.1281000000	  39.0823000000
H	   6.4148800000	  36.0863000000	  37.3449000000
H	   4.6875300000	  35.8523000000	  36.8691000000
H	   5.7529700000	  37.0420000000	  39.1528000000
H	   4.0805500000	  36.2718000000	  39.0267000000
H	   5.9411500000	  33.1183000000	  39.4436000000
H	   7.1037900000	  34.2866000000	  39.0689000000
P	   1.6743400000	  35.7153000000	  41.6712000000
F	  -0.5810530386	  34.8379000000	  40.0506000000
F	  -0.3894530386	  36.9617000000	  39.6720000000
F	  -0.6482530386	  35.6494000000	  38.0098000000
F	   0.6451469614	  34.7259000000	  44.5930000000
F	  -0.6227530386	  34.2347000000	  42.8966000000
F	  -0.1061530386	  32.7116000000	  44.2806000000
F	   1.2899469614	  37.5844000000	  43.8268000000
F	   2.8362000000	  39.0524000000	  44.3144000000
F	   1.9349000000	  39.1060000000	  42.3288000000
O	   1.9418800000	  34.9759000000	  40.2379000000
O	   2.3696200000	  34.5625000000	  42.5871000000
O	   3.1160400000	  36.6044000000	  41.7007000000
C	   1.4570700000	  35.6053000000	  39.0512000000
C	   1.6152300000	  33.4421000000	  43.0107000000
C	   3.4483500000	  37.4645000000	  42.8135000000
C	  -0.0762530386	  35.7716000000	  39.2059000000
C	   0.3127469614	  33.7697000000	  43.6979000000
C	   2.3002500000	  38.3169000000	  43.3388000000
H	   1.9616900000	  36.5891000000	  39.0239000000
H	   1.6624400000	  35.1432000000	  38.1034000000
H	   1.4302700000	  33.0140000000	  42.0004000000
H	   2.2128300000	  32.8052000000	  43.6882000000
H	   3.8678600000	  36.8415000000	  43.6255000000
H	   4.3129800000	  38.0934000000	  42.4689000000
N	   2.6093900000	  30.8556000000	  41.5572000000
S	   2.8731000000	  29.5892000000	  42.3364000000
O	   4.1917200000	  28.9689000000	  42.0752000000
O	   2.3839100000	  29.6491000000	  43.7117000000
C	   1.7555900000	  28.3967000000	  41.5165000000
F	   2.0526900000	  28.2570000000	  40.2087000000
F	   0.5251469614	  28.8728000000	  41.6168000000
F	   1.7867500000	  27.1918000000	  42.0606000000
S	   3.5754200000	  31.4811000000	  40.4570000000
O	   4.7113200000	  30.6376000000	  40.0504000000
O	   3.7810800000	  32.8808000000	  40.7172000000
C	   2.4393400000	  31.4485000000	  38.9727000000
F	   1.3869300000	  32.3065000000	  39.1783000000
F	   3.0330700000	  31.8224000000	  37.8454000000
F	   1.9006300000	  30.2305000000	  38.7714000000
N	   7.8143000000	  33.8719000000	  43.2155000000
S	   6.3296500000	  33.3563000000	  43.1720000000
O	   5.4087000000	  34.3008000000	  42.6059000000
O	   6.1715100000	  32.0181000000	  42.7297000000
C	   5.8037200000	  33.3722000000	  44.9650000000
F	   6.7500400000	  32.9231000000	  45.7198000000
F	   4.7758400000	  32.5687000000	  45.1414000000
F	   5.4334500000	  34.5891000000	  45.3860000000
S	   9.0788200000	  33.0176000000	  43.1176000000
O	   8.8668300000	  31.6213000000	  43.3314000000
O	  10.1938000000	  33.6170000000	  43.7501000000
C	   9.3077100000	  33.1965000000	  41.3111000000
F	   8.3731400000	  32.4994000000	  40.6148000000
F	   9.2053400000	  34.4639000000	  40.9142000000
F	  10.4804000000	  32.6790000000	  40.8978000000
