43

Li	  21.1442000000	   1.4815200000	  13.3016000000
O	  21.0314000000	  -2.1444906887	  14.5086000000
O	  21.6344000000	   0.0018093113	  14.4179000000
C	  20.3798000000	  -1.4728906887	  15.5236000000
C	  20.9569000000	  -0.1068906887	  15.6380000000
C	  22.0162000000	  -1.2274906887	  14.0744000000
H	  19.3005000000	  -1.4490906887	  15.3740000000
H	  20.5044000000	  -2.0873906887	  16.4781000000
H	  20.2288000000	   0.6725093113	  15.7325000000
H	  21.8090000000	  -0.0579906887	  16.3594000000
H	  22.9729000000	  -1.3912906887	  14.4941000000
H	  22.2889000000	  -1.2694906887	  13.0401000000
N	  18.8476000000	  -0.4279906887	  11.0895000000
S	  19.3635000000	  -1.8939906887	  10.8406000000
O	  20.7777000000	  -1.9883906887	  10.5665000000
O	  18.8234000000	  -2.8602906887	  11.7476000000
C	  18.5604000000	  -2.4070906887	   9.2631000000
F	  17.2780000000	  -2.0851906887	   9.3590000000
F	  18.5906000000	  -3.7542906887	   9.1225900000
F	  19.1045000000	  -1.8456906887	   8.2040100000
S	  18.3850000000	   0.1564093113	  12.4596000000
O	  19.3058000000	   1.0573093113	  13.0724000000
O	  17.5368000000	  -0.7006906887	  13.2589000000
C	  17.1712000000	   1.3321100000	  11.7366000000
F	  17.7647000000	   2.3206600000	  11.1036000000
F	  16.2962000000	   0.7375093113	  10.9194000000
F	  16.5356000000	   1.9996700000	  12.6837000000
S	  22.0683000000	   2.9363500000	  14.8412000000
S	  20.9410000000	   4.7126100000	  15.0616000000
S	  18.9902000000	   4.2333500000	  15.6021000000
S	  15.8016000000	   7.6916900000	  13.6514000000
S	  14.4827000000	   7.6339900000	  11.9957000000
S	  12.8393000000	   8.8675200000	  12.5696000000
S	  15.9891000000	   5.8319500000	  14.6256000000
S	  17.5711000000	   4.5033300000	  14.1384000000
S	  19.9543000000	  10.5597000000	   6.0455800000
S	  20.6292000000	   9.7533700000	   7.9374300000
S	  20.8701000000	   7.7158800000	   7.9146900000
S	  20.6756000000	   4.1507500000	  11.4297000000
S	  22.5909000000	   3.3389900000	  11.3537000000
S	  22.6041000000	   1.1922093113	  11.5694000000
S	  19.8577000000	   4.5520700000	   9.4746900000
S	  19.4865000000	   6.6384000000	   9.1574900000
