50

Li	  49.7721000000	  21.8910000000	   7.7974500000
O	  49.8667000000	  22.1815000000	   9.7629200000
O	  50.4770000000	  24.0543000000	  10.6058000000
C	  48.8475000000	  22.5123000000	  10.6964000000
C	  49.3859000000	  23.7013000000	  11.4373000000
C	  50.9650000000	  22.8734000000	  10.1164000000
H	  47.9529000000	  22.9144000000	  10.2052000000
H	  48.4990000000	  21.6425000000	  11.1836000000
H	  48.6720000000	  24.5088000000	  11.3548000000
H	  49.5618000000	  23.4490000000	  12.5064000000
H	  51.5081000000	  22.3568000000	  10.9216000000
H	  51.6192000000	  23.1279000000	   9.2345300000
N	  46.6905000000	  19.0932000000	   9.3412300000
S	  45.8058000000	  19.0145000000	  10.5977000000
O	  45.6282000000	  20.2464000000	  11.2960000000
O	  44.6556000000	  18.2674000000	  10.2382000000
C	  46.8560000000	  17.9518000000	  11.6862000000
F	  46.5332000000	  18.0684000000	  12.9652000000
F	  48.1549000000	  18.3593000000	  11.7211000000
F	  46.7946000000	  16.7579000000	  11.2726000000
S	  46.8287000000	  20.2124000000	   8.2733300000
O	  48.1861000000	  20.5114000000	   7.9839700000
O	  45.9373000000	  21.3848000000	   8.4258000000
C	  46.1818000000	  19.3828000000	   6.7884700000
F	  44.8665000000	  19.3795000000	   6.7857000000
F	  46.4892000000	  20.0719000000	   5.7154700000
F	  46.6190000000	  18.2124000000	   6.5118000000
N	  47.6320000000	  25.8033000000	   8.2018900000
S	  46.2189000000	  25.5105000000	   8.7854600000
O	  45.1510000000	  26.0147000000	   7.9629700000
O	  45.9425000000	  24.1797000000	   9.2842800000
C	  46.2319000000	  26.6752000000	  10.2886000000
F	  44.9862000000	  26.7958000000	  10.7188000000
F	  46.6877000000	  27.8554000000	  10.0191000000
F	  46.9114000000	  26.2421000000	  11.3611000000
S	  48.6192000000	  24.8487000000	   7.5004800000
O	  48.1555000000	  23.4646000000	   7.3745000000
O	  49.9616000000	  25.0746000000	   7.9411100000
C	  48.5545000000	  25.5354000000	   5.8302000000
F	  48.8342000000	  26.8036000000	   5.9149100000
F	  49.4556000000	  24.9290000000	   5.0330900000
F	  47.3572000000	  25.4160000000	   5.2445500000
S	  51.0178000000	  21.9985000000	   6.1717800000
S	  51.6096000000	  20.4916000000	   7.5677200000
S	  53.4939000000	  19.6616000000	   6.8318700000
S	  53.1957000000	  20.9558000000	   2.4022500000
S	  54.1028000000	  22.8477000000	   2.2621200000
S	  53.3649000000	  24.1039000000	   3.8373200000
S	  54.3522000000	  19.5599000000	   3.4323800000
S	  53.2682000000	  18.6099000000	   5.0493400000
