66

Li	  10.7049000000	  49.8102000000	  26.7054000000
P	   8.8540400000	  50.4856000000	  24.7864000000
F	  10.2445000000	  48.1168000000	  22.9331000000
F	  10.3142000000	  50.0785000000	  21.9407000000
F	  11.9785000000	  48.7137000000	  21.8307000000
F	   5.1634900000	  50.5674000000	  27.4573000000
F	   6.0056000000	  51.6175000000	  25.8093000000
F	   6.2025000000	  49.5197000000	  25.8074000000
F	   7.0173000000	  51.6896000000	  22.7951000000
F	   6.7093100000	  53.9297000000	  22.8058000000
F	   8.4396900000	  53.1567000000	  21.7898000000
O	  10.3537000000	  49.9485000000	  24.9500000000
O	   8.7140000000	  50.3094000000	  26.3890000000
O	   9.3025500000	  52.0690000000	  24.4267000000
C	  11.2652000000	  49.9286000000	  23.8952000000
C	   7.6474500000	  50.7616000000	  27.2024000000
C	   8.3460400000	  53.1397000000	  24.1788000000
C	  10.8886000000	  49.1355000000	  22.5961000000
C	   6.2088900000	  50.5935000000	  26.6118000000
C	   7.6226100000	  52.9647000000	  22.8620000000
H	  11.5203000000	  50.9425000000	  23.6160000000
H	  12.1604000000	  49.5885000000	  24.3687000000
H	   7.6739400000	  50.3148000000	  28.1735000000
H	   7.7963800000	  51.7809000000	  27.4445000000
H	   7.8186300000	  53.4014000000	  25.0897000000
H	   8.9885100000	  54.0386000000	  24.0534000000
P	  12.8310000000	  52.0778000000	  27.4861000000
F	  12.1543000000	  51.9726000000	  30.4716000000
F	  12.0547000000	  54.0714000000	  29.9754000000
F	  10.5668000000	  53.3201000000	  31.2254000000
F	  15.3917000000	  48.4348000000	  28.0848000000
F	  15.3210000000	  50.5346000000	  28.0177000000
F	  14.1900000000	  49.5027000000	  29.4885000000
F	  13.5272000000	  55.5817000000	  25.1956000000
F	  11.6199000000	  54.7170000000	  24.7850000000
F	  12.3896000000	  54.7632000000	  26.7492000000
O	  11.2385000000	  52.5903000000	  27.6125000000
O	  12.3578000000	  50.4663000000	  27.4027000000
O	  12.7900000000	  52.1195000000	  25.8111000000
C	  10.5226000000	  52.6306000000	  28.8980000000
C	  13.3048000000	  49.3945000000	  27.2983000000
C	  13.3878000000	  53.2207000000	  25.1823000000
C	  11.3125000000	  52.9961000000	  30.1980000000
C	  14.5556000000	  49.5064000000	  28.2471000000
C	  12.7174000000	  54.5790000000	  25.5228000000
H	   9.6642100000	  53.2445000000	  28.7251000000
H	  10.1110000000	  51.6122000000	  29.0483000000
H	  12.8429000000	  48.4309000000	  27.4832000000
H	  13.4919000000	  49.3384000000	  26.2126000000
H	  14.4262000000	  53.2352000000	  25.2560000000
H	  13.1446000000	  53.1400000000	  24.1677000000
N	   9.5719300000	  46.2016000000	  27.8316000000
S	   9.6022700000	  47.4378000000	  28.8234000000
O	  10.2603000000	  47.0594000000	  30.0617000000
O	   9.9557700000	  48.7398000000	  28.2241000000
C	   7.7832800000	  47.4748000000	  29.1485000000
F	   7.0848200000	  47.7988000000	  28.0263000000
F	   7.4862400000	  48.2565000000	  30.1309000000
F	   7.3544100000	  46.3328000000	  29.5735000000
S	  10.3794000000	  46.0298000000	  26.4935000000
O	  11.0266000000	  44.7252000000	  26.2537000000
O	  10.9089000000	  47.2281000000	  25.8818000000
C	   8.9134900000	  45.8531000000	  25.3580000000
F	   8.2106900000	  46.9575000000	  25.1895000000
F	   9.2984500000	  45.4521000000	  24.1148000000
F	   8.0551900000	  44.9086000000	  25.7737000000
