71

Li	  44.9571000000	  22.4427000000	  25.6688000000
P	  47.6308000000	  21.5197000000	  25.5275000000
F	  47.9779000000	  19.7207000000	  28.2624000000
F	  46.7341000000	  17.9850000000	  28.2379000000
F	  47.7954000000	  18.5296000000	  26.4974000000
F	  49.8294000000	  20.1933000000	  23.4558000000
F	  49.3274000000	  20.1265000000	  21.4644000000
F	  49.2155000000	  22.0685000000	  22.5132000000
F	  48.1441000000	  24.9718000000	  25.6798000000
F	  49.4488000000	  23.4864000000	  24.8397000000
F	  48.8335000000	  25.1469000000	  23.5962000000
O	  46.3020000000	  21.2401000000	  26.5445000000
O	  47.2117000000	  20.3366000000	  24.3979000000
O	  46.7007000000	  22.7355000000	  24.9128000000
C	  45.9645000000	  19.9452000000	  27.0352000000
C	  47.5632000000	  20.3585000000	  23.0074000000
C	  47.1705000000	  23.7037000000	  24.0015000000
C	  47.1116000000	  18.9912000000	  27.5429000000
C	  49.0170000000	  20.7481000000	  22.6221000000
C	  48.4663000000	  24.3211000000	  24.5606000000
H	  45.0773000000	  19.8717000000	  27.6341000000
H	  45.5399000000	  19.4430000000	  26.1934000000
H	  47.5196000000	  19.3110000000	  22.8029000000
H	  46.8264000000	  20.9420000000	  22.5186000000
H	  47.3162000000	  23.1882000000	  23.0283000000
H	  46.4377000000	  24.4762000000	  23.8330000000
N	  42.9912000000	  20.8056000000	  22.3862000000
S	  42.8709000000	  22.1788000000	  23.0459000000
O	  41.6008000000	  22.8033000000	  22.9580000000
O	  43.6436000000	  22.2888000000	  24.2427000000
C	  43.8995000000	  23.2048000000	  21.9372000000
F	  43.4794000000	  23.1292000000	  20.6787000000
F	  45.1794000000	  22.7653000000	  21.8951000000
F	  43.9361000000	  24.4551000000	  22.2818000000
S	  43.3610000000	  19.4821000000	  23.1748000000
O	  42.9472000000	  19.3758000000	  24.5677000000
O	  44.6547000000	  18.9422000000	  22.8171000000
C	  42.2572000000	  18.3244000000	  22.2577000000
F	  40.9860000000	  18.6088000000	  22.4958000000
F	  42.4622000000	  18.3461000000	  20.9184000000
F	  42.4166000000	  17.0582000000	  22.6443000000
N	  46.1039000000	  26.0132000000	  27.5046000000
S	  44.7268000000	  25.5802000000	  26.9975000000
O	  44.7946000000	  24.3120000000	  26.2853000000
O	  43.7674000000	  25.7579000000	  28.0427000000
C	  44.2978000000	  26.8371000000	  25.6525000000
F	  44.4079000000	  28.1056000000	  25.9923000000
F	  43.0435000000	  26.6310000000	  25.2271000000
F	  45.0215000000	  26.7018000000	  24.5805000000
S	  46.4577000000	  27.0273000000	  28.6661000000
O	  47.0903000000	  26.4170000000	  29.7851000000
O	  45.4114000000	  27.9363000000	  28.9610000000
C	  47.6624000000	  28.0461000000	  27.9339000000
F	  48.1426000000	  28.8728000000	  28.8248000000
F	  48.7203000000	  27.4154000000	  27.5264000000
F	  47.2610000000	  28.7404000000	  26.8731000000
N	  40.9706000000	  22.7245000000	  26.4145000000
S	  40.3245000000	  24.0473000000	  25.9904000000
O	  40.9967000000	  25.2304000000	  26.4938000000
O	  39.8266000000	  24.1807000000	  24.6590000000
C	  38.7798000000	  23.9790000000	  26.9195000000
F	  37.8862000000	  23.1109000000	  26.3865000000
F	  38.1010000000	  25.1523000000	  26.9281000000
F	  38.8848000000	  23.6088000000	  28.1733000000
S	  42.1691000000	  22.5408000000	  27.3784000000
O	  42.2163000000	  23.5989000000	  28.3606000000
O	  43.4714000000	  22.0590000000	  26.8725000000
C	  41.4686000000	  21.1804000000	  28.4115000000
F	  41.1601000000	  20.0693000000	  27.7640000000
F	  42.2387000000	  20.8599000000	  29.4304000000
F	  40.3025000000	  21.5625000000	  28.8861000000
