71

Li	  32.4495000000	   4.6285900000	  22.5939000000
P	  30.1184000000	   5.7324300000	  23.1716000000
F	  29.4751000000	   7.4290700000	  27.1411000000
F	  29.5311000000	   7.9452100000	  24.9840000000
F	  28.5305000000	   6.2275600000	  25.6692000000
F	  30.8801000000	   9.4048200000	  20.7057000000
F	  29.5692000000	   7.5280300000	  20.4617000000
F	  29.6981000000	   8.5230200000	  22.3383000000
F	  27.5342000000	   4.1307200000	  23.3751000000
F	  27.5557000000	   1.9835500000	  23.4313000000
F	  29.0699000000	   2.9824300000	  24.6949000000
O	  31.2024000000	   5.8139600000	  24.4456000000
O	  31.2552000000	   6.0103000000	  21.9720000000
O	  30.3850000000	   4.2021600000	  22.6305000000
C	  30.7791000000	   6.0754200000	  25.8130000000
C	  31.5957000000	   7.3657700000	  21.6833000000
C	  29.2740000000	   3.1890500000	  22.3546000000
C	  29.5979000000	   7.0450100000	  25.8744000000
C	  30.4166000000	   8.2424000000	  21.2265000000
C	  28.3214000000	   3.0476400000	  23.5427000000
H	  30.4529000000	   5.1414800000	  26.3002000000
H	  31.5375000000	   6.5672400000	  26.3999000000
H	  31.9334000000	   7.7898900000	  22.6718000000
H	  32.4124000000	   7.5200200000	  20.9802000000
H	  28.9459000000	   3.2500100000	  21.2655000000
H	  29.8077000000	   2.2259100000	  22.1419000000
N	  34.4433000000	   5.8523300000	  19.4623000000
S	  33.7161000000	   4.4608300000	  19.5072000000
O	  34.4731000000	   3.4119200000	  18.8984000000
O	  33.2880000000	   4.1990100000	  20.8676000000
C	  32.2221000000	   4.7091400000	  18.4902000000
F	  32.3239000000	   4.8117800000	  17.1653000000
F	  31.5962000000	   5.8059800000	  18.9589000000
F	  31.3872000000	   3.7488200000	  18.6351000000
S	  35.9248000000	   6.1410400000	  19.0152000000
O	  36.7987000000	   5.0321600000	  18.8008000000
O	  36.5188000000	   7.2819000000	  19.6453000000
C	  35.6068000000	   6.7645700000	  17.3136000000
F	  34.9189000000	   7.9292700000	  17.2848000000
F	  36.7129000000	   7.0694900000	  16.6080000000
F	  34.8547000000	   5.9612200000	  16.5247000000
N	  35.8541000000	   6.7544900000	  24.8669000000
S	  34.9942000000	   6.5845200000	  26.1658000000
O	  33.9585000000	   7.5626200000	  26.2544000000
O	  34.8037000000	   5.1884300000	  26.4626000000
C	  36.1762000000	   7.2693300000	  27.4009000000
F	  36.7486000000	   8.3457700000	  26.9395000000
F	  37.0091000000	   6.3794500000	  27.7851000000
F	  35.4902000000	   7.6030200000	  28.5134000000
S	  35.7019000000	   6.1007500000	  23.4375000000
O	  36.2639000000	   6.9536300000	  22.4169000000
O	  34.4044000000	   5.5441700000	  23.2240000000
C	  36.8813000000	   4.6878700000	  23.5625000000
F	  36.5818000000	   3.9460400000	  24.5579000000
F	  36.7756000000	   3.9517800000	  22.4904000000
F	  38.1284000000	   5.0810000000	  23.6735000000
N	  33.0909000000	   1.9466700000	  26.0662000000
S	  32.6739000000	   2.1402200000	  24.6245000000
O	  31.4393000000	   1.4995700000	  24.2073000000
O	  33.0440000000	   3.4212600000	  24.1059000000
C	  33.9366000000	   1.0361093113	  23.8084000000
F	  33.9348000000	  -0.2258906887	  24.2532000000
F	  35.1866000000	   1.4781800000	  23.9383000000
F	  33.7058000000	   0.9017093113	  22.5170000000
S	  32.2680000000	   1.4786200000	  27.2950000000
O	  32.6602000000	   0.1287093113	  27.8072000000
O	  30.8454000000	   1.7349000000	  27.1971000000
C	  32.8186000000	   2.6034700000	  28.6277000000
F	  32.4692000000	   2.3255400000	  29.9127000000
F	  34.1409000000	   2.7334600000	  28.7191000000
F	  32.2736000000	   3.8493600000	  28.4307000000
