28

Li	  55.7087000000	  25.0531000000	  55.7787000000
O	  54.5729000000	  23.9888000000	  54.5429000000
O	  54.2056000000	  22.4544000000	  52.9388000000
C	  53.3282000000	  24.3518000000	  53.9254000000
C	  53.5944000000	  23.6979000000	  52.5638000000
C	  54.7534000000	  22.6422000000	  54.1448000000
H	  52.4218000000	  23.9998000000	  54.4200000000
H	  53.3192000000	  25.4209000000	  53.9332000000
H	  52.6806000000	  23.4042000000	  52.0581000000
H	  54.2356000000	  24.3442000000	  52.0458000000
H	  55.7994000000	  22.3726000000	  54.0664000000
H	  54.2637000000	  21.9554000000	  54.7699000000
S	  63.7220830386	  31.5632000000	  54.1733000000
S	  62.1993730386	  30.0834000000	  54.1563000000
S	  62.2713630386	  28.6540000000	  55.7119000000
S	  57.4707000000	  27.9007000000	  57.6813000000
S	  55.7660000000	  27.1368000000	  56.7095000000
S	  54.9444000000	  25.4724000000	  57.8687000000
S	  59.2806230386	  27.2305000000	  56.7265000000
S	  60.7034630386	  28.7754000000	  57.0916000000
S	  57.4774000000	  24.0197000000	  55.8817000000
S	  57.8909000000	  24.6339000000	  53.9082000000
S	  56.6323000000	  26.2630000000	  53.4054000000
S	  56.9034000000	  30.2872000000	  50.7513000000
S	  57.5230000000	  30.8081000000	  48.7969000000
S	  58.5751000000	  32.6722000000	  48.6198000000
S	  58.2875000000	  28.8007000000	  51.5859000000
S	  57.6648000000	  28.1045000000	  53.4312000000
