45

Li	  54.9011000000	  48.5540000000	   8.9671800000
O	  53.8822000000	  46.5338000000	   5.4793300000
O	  54.0415000000	  47.6761000000	   7.4160100000
C	  52.5817000000	  46.5871000000	   6.0514300000
C	  52.9213000000	  46.8090000000	   7.5335600000
C	  54.7722000000	  47.0934000000	   6.4379900000
H	  52.0648000000	  47.4830000000	   5.6177400000
H	  51.8448000000	  45.8191000000	   5.6942800000
H	  52.0275000000	  47.1951000000	   8.0542500000
H	  53.1740000000	  45.9046000000	   8.0669400000
H	  55.2490000000	  46.3844000000	   6.9282600000
H	  55.4867000000	  47.7468000000	   5.9696500000
P	  56.3013000000	  50.6210000000	   8.7299700000
F	  58.9292930386	  50.2301000000	   7.2858400000
F	  59.0342530386	  50.3753000000	   9.4373100000
F	  60.3280930386	  49.0559000000	   8.4669400000
F	  54.8269000000	  53.0799000000	   7.5470100000
F	  55.1399000000	  51.5026000000	   6.0496000000
F	  53.2906000000	  52.5153000000	   6.1000100000
F	  56.3037000000	  53.3228000000	  12.2489000000
F	  57.5675000000	  52.6535000000	  10.5780000000
F	  55.5303000000	  53.4601000000	  10.1118000000
O	  56.6561000000	  49.0271000000	   8.3166800000
O	  54.7452000000	  50.2905000000	   8.3644300000
O	  56.0942000000	  50.3560000000	  10.4065000000
C	  57.9487000000	  48.5159000000	   8.6169400000
C	  53.7186000000	  51.1903000000	   7.9143200000
C	  55.6193000000	  51.3629000000	  11.2535000000
C	  59.0757430386	  49.5433000000	   8.4244400000
C	  54.2870000000	  52.0906000000	   6.8725400000
C	  56.2753000000	  52.7742000000	  11.0412000000
H	  57.8868000000	  48.1071000000	   9.5928100000
H	  58.1296000000	  47.6093000000	   8.0131000000
H	  52.7695000000	  50.6633000000	   7.5973900000
H	  53.4907000000	  51.7979000000	   8.7801800000
H	  54.5173000000	  51.4587000000	  11.2079000000
H	  55.6724000000	  51.0732000000	  12.3177000000
S	  63.0206330386	  42.2825000000	  13.5117000000
S	  61.3246130386	  43.6514000000	  13.3666000000
S	  59.3684030386	  42.7371000000	  13.2606000000
S	  56.2351000000	  45.6826000000	  10.0336000000
S	  55.5459000000	  47.3965000000	  10.9857000000
S	  53.5423000000	  47.5569000000	  10.7825000000
S	  56.5175000000	  44.0534000000	  11.5362000000
S	  58.4026000000	  43.0953000000	  11.4629000000
