60

Li	  32.0825000000	   2.3022900000	   4.8793600000
O	  30.4446000000	   0.9892093113	   1.2389263378
O	  31.4434000000	   1.6738700000	   3.0992900000
C	  30.7608000000	   2.3139000000	   0.9263263378
C	  31.1507000000	   2.8124800000	   2.2947700000
C	  31.3119000000	   0.6166093113	   2.2608300000
H	  31.6490000000	   2.2506100000	   0.2923263378
H	  30.0000000000	   2.9550600000	   0.4078263378
H	  32.0273000000	   3.4059100000	   2.2293200000
H	  30.3776000000	   3.4458700000	   2.7362100000
H	  30.8068000000	  -0.1950906887	   2.6922000000
H	  32.2322000000	   0.1324093113	   1.8857600000
P	  34.3067000000	   3.0602000000	   5.5623000000
F	  35.0524000000	   6.1689700000	   4.0960400000
F	  33.6490000000	   7.5261500000	   5.0812600000
F	  34.7887000000	   6.0526000000	   6.2727700000
F	  33.2292000000	   3.5877500000	   9.7864300000
F	  35.0436000000	   3.3889300000	   8.6647100000
F	  33.4074000000	   4.7423900000	   8.0607900000
F	  36.1560000000	  -0.6748906887	   4.0403600000
F	  35.9651000000	   0.7616093113	   5.6579300000
F	  34.1762000000	  -0.5102906887	   5.1022600000
O	  32.9504000000	   4.0235600000	   5.2392500000
O	  33.2947000000	   2.1379000000	   6.5322900000
O	  34.0435000000	   2.3080600000	   4.0747500000
C	  32.8989000000	   5.3978600000	   4.8428500000
C	  32.8874000000	   2.4426300000	   7.8751500000
C	  35.0091000000	   1.2449093113	   3.6921700000
C	  34.1536000000	   6.2900200000	   5.1563400000
C	  33.7436000000	   3.5458900000	   8.5600100000
C	  35.3119000000	   0.1357093113	   4.6668100000
H	  32.4541000000	   5.4825300000	   3.8401800000
H	  32.1543000000	   5.8425500000	   5.5191000000
H	  31.8587000000	   2.7462300000	   7.9965500000
H	  33.0193000000	   1.5261000000	   8.5250000000
H	  34.6957000000	   0.8860093113	   2.7123900000
H	  35.8737000000	   1.7595900000	   3.3621400000
N	  29.9954000000	   0.5353093113	   7.8523400000
S	  30.4189000000	  -0.2002906887	   6.4883800000
O	  29.3183000000	  -0.9222906887	   5.8122600000
O	  31.2385000000	   0.6184093113	   5.6625500000
C	  31.5727000000	  -1.4107906887	   7.2538100000
F	  32.1926000000	  -2.1570906887	   6.3580700000
F	  30.9984000000	  -2.1334906887	   8.1520300000
F	  32.5695000000	  -0.8444906887	   7.9404400000
S	  28.5273000000	   0.8128093113	   8.3423100000
O	  27.7098000000	  -0.4355906887	   8.3969600000
O	  27.8895000000	   2.0509400000	   7.9015400000
C	  28.7725000000	   1.1533093113	  10.1546000000
F	  29.5450000000	   0.1688093113	  10.7185000000
F	  29.3927000000	   2.2807300000	  10.3065000000
F	  27.6738000000	   1.1990093113	  10.8319000000
S	  29.9063000000	   3.4072200000	   5.6384100000
S	  29.2001000000	   5.2383100000	   4.9955000000
S	  27.3941000000	   5.1456200000	   4.1164600000
S	  24.9493000000	   2.4315700000	   1.0646263378
S	  23.0087000000	   1.7308800000	   1.5839600000
S	  22.7747000000	  -0.1364906887	   2.6306700000
S	  25.2202000000	   4.4284600000	   1.5947600000
S	  27.2807000000	   4.7176700000	   2.0984800000
