39

Li	   9.3571200000	  27.1397000000	  26.6629000000
O	   7.7638300000	  28.1224000000	  25.9823000000
O	   6.6069300000	  28.5707000000	  24.1105000000
C	   6.4394600000	  27.6398000000	  26.1294000000
C	   5.6314800000	  27.9798000000	  24.8880000000
C	   7.6644400000	  29.0476000000	  24.9509000000
H	   6.4073300000	  26.6192000000	  26.2521000000
H	   6.0832400000	  28.0731000000	  27.0446000000
H	   5.2509200000	  27.1026000000	  24.4422000000
H	   4.8732700000	  28.7194000000	  24.9768000000
H	   7.3569700000	  29.9895000000	  25.5202000000
H	   8.6295400000	  29.1293000000	  24.4846000000
O	   8.8507500000	  27.2832000000	  28.8754000000
O	   7.5878500000	  28.0311000000	  30.4871000000
C	   9.3653700000	  26.6207000000	  30.0003000000
C	   8.4552400000	  27.1464000000	  31.1044000000
C	   8.2787700000	  28.4211000000	  29.3478000000
H	   9.4200600000	  25.5280000000	  29.7961000000
H	  10.4166000000	  26.8747000000	  30.2128000000
H	   7.8823700000	  26.4316000000	  31.6846000000
H	   9.0333600000	  27.6809000000	  31.8850000000
H	   9.0674400000	  29.2181000000	  29.5221000000
H	   7.5469400000	  28.8643000000	  28.6647000000
S	   8.8394400000	  25.2009000000	  26.6762000000
S	   9.5456000000	  25.7547000000	  24.7750000000
S	  11.5740000000	  25.1145000000	  24.5663000000
S	  10.8874000000	  23.8414000000	  20.1686000000
S	  11.4929000000	  22.9235000000	  18.3620000000
S	  10.4772000000	  21.1606000000	  17.8064000000
S	  12.4410000000	  23.6466000000	  21.6297000000
S	  11.8905000000	  23.2798000000	  23.6063000000
S	  11.3407000000	  28.0692000000	  27.1543000000
S	  11.0040000000	  29.9016000000	  26.2205000000
S	   9.5090500000	  31.0226000000	  27.2901000000
S	   9.3129400000	  35.3709000000	  29.1369000000
S	   9.5551500000	  37.4193000000	  28.5642000000
S	   8.8996600000	  38.5168000000	  30.2287000000
S	  10.6735000000	  34.1317000000	  28.2422000000
S	   9.6755900000	  33.0488000000	  26.7545000000
