63

Li	  27.5429000000	  14.4446000000	  23.7499000000
O	  26.5216000000	  12.5249000000	  27.1865000000
O	  27.3011000000	  13.0720000000	  25.0566000000
C	  27.8740000000	  12.7152000000	  27.2356000000
C	  28.3180000000	  12.4767000000	  25.7594000000
C	  26.1456000000	  12.8569000000	  25.8552000000
H	  28.1384000000	  13.7153000000	  27.4627000000
H	  28.2946000000	  11.9873000000	  27.9016000000
H	  29.3021000000	  12.8129000000	  25.4610000000
H	  28.2508000000	  11.4585000000	  25.5184000000
H	  25.4284000000	  12.0109000000	  25.5648000000
H	  25.6095000000	  13.8058000000	  25.7565000000
O	  29.2965000000	  13.8246000000	  23.0868000000
O	  31.2167000000	  14.1470000000	  21.9073000000
C	  29.4339000000	  12.7307000000	  22.2420000000
C	  30.9611000000	  12.7819000000	  22.1735000000
C	  30.2664000000	  14.7618000000	  22.6468000000
H	  29.0631000000	  11.8073000000	  22.7478000000
H	  28.9502000000	  12.8313000000	  21.2745000000
H	  31.4472000000	  12.5378000000	  23.0893000000
H	  31.4649000000	  12.1582000000	  21.4465000000
H	  29.8247000000	  15.6588000000	  22.1469000000
H	  30.8560000000	  15.0683000000	  23.5241000000
P	  26.7804000000	  16.9878000000	  24.3606000000
F	  30.6037000000	  17.2173000000	  26.7302000000
F	  29.7386000000	  18.0620000000	  25.0228000000
F	  28.8331000000	  18.3098000000	  26.8761000000
F	  25.7671000000	  19.2144000000	  22.2621000000
F	  27.6208000000	  19.8345000000	  23.3068000000
F	  27.4770000000	  19.8844000000	  21.1452000000
F	  24.0200000000	  16.4008000000	  25.7483000000
F	  23.7243000000	  17.9667000000	  24.3028000000
F	  22.3580000000	  16.2399000000	  24.2058000000
O	  28.0780000000	  15.9532000000	  24.6938000000
O	  27.1193000000	  16.8971000000	  22.7373000000
O	  25.8705000000	  15.6501000000	  24.1665000000
C	  28.7485000000	  16.1532000000	  25.9765000000
C	  27.8666000000	  17.8889000000	  22.0933000000
C	  24.6149000000	  15.9316000000	  23.4789000000
C	  29.5189000000	  17.4420000000	  26.1288000000
C	  27.1073000000	  19.2016000000	  22.2362000000
C	  23.6427000000	  16.6434000000	  24.4850000000
H	  28.0396000000	  16.3260000000	  26.7732000000
H	  29.4252000000	  15.3337000000	  26.1753000000
H	  28.8921000000	  18.0575000000	  22.4823000000
H	  27.9608000000	  17.5381000000	  21.0588000000
H	  24.6443000000	  16.4234000000	  22.5702000000
H	  24.1046000000	  14.9957000000	  23.3882000000
N	  24.6280000000	  14.6126000000	  20.7052000000
S	  25.8059000000	  13.5461000000	  21.0082000000
O	  26.4418000000	  12.8113000000	  19.9112000000
O	  26.6190000000	  14.0350000000	  22.1022000000
C	  24.8861000000	  12.2264000000	  21.7400000000
F	  24.1083000000	  12.5602000000	  22.7546000000
F	  25.7127000000	  11.2923000000	  22.0909000000
F	  24.0014000000	  11.6203000000	  20.9139000000
S	  24.0667000000	  15.2035000000	  19.3388000000
O	  22.6767000000	  15.0842000000	  19.1789000000
O	  24.9909000000	  14.8764000000	  18.2523000000
C	  24.2734000000	  17.0375000000	  19.6010000000
F	  23.5046000000	  17.5600000000	  20.6204000000
F	  25.5538000000	  17.3800000000	  19.7567000000
F	  23.9276000000	  17.7266000000	  18.5768000000
