62

Li	  46.1392000000	  44.6553000000	  50.9070000000
O	  47.6042000000	  47.7646000000	  51.8602000000
O	  46.1610000000	  46.5051000000	  50.7199000000
C	  47.9219000000	  48.0646000000	  50.5591000000
C	  46.8719000000	  47.3063000000	  49.7224000000
C	  46.2970000000	  47.2417000000	  51.8916000000
H	  47.7850000000	  49.0449000000	  50.3759000000
H	  48.9477000000	  47.7984000000	  50.3806000000
H	  46.2850000000	  47.9847000000	  49.2597000000
H	  47.2109000000	  46.6962000000	  48.9182000000
H	  46.1655000000	  46.5801000000	  52.7706000000
H	  45.5641000000	  47.9552000000	  52.0091000000
P	  47.9916000000	  43.1680000000	  52.3153000000
F	  47.8874000000	  40.3924000000	  52.9008000000
F	  46.5160000000	  38.9351000000	  52.0990000000
F	  47.8722000000	  40.0244000000	  50.8218000000
F	  50.5807000000	  43.3848000000	  48.6814000000
F	  50.4150000000	  42.5459000000	  50.6354000000
F	  48.9219000000	  42.0039000000	  49.0197000000
F	  49.9519000000	  43.9296000000	  54.5715000000
F	  48.8192000000	  44.2091000000	  56.5423000000
F	  48.2557000000	  42.6726000000	  55.0655000000
O	  46.5472000000	  42.5076000000	  52.5615000000
O	  47.6961000000	  43.7557000000	  50.7635000000
O	  47.8398000000	  44.6799000000	  53.0592000000
C	  46.1306000000	  41.2349000000	  51.8771000000
C	  48.7550000000	  44.1885000000	  49.9627000000
C	  47.7478000000	  44.7401000000	  54.4399000000
C	  47.1248000000	  40.0574000000	  51.8611000000
C	  49.6850000000	  43.0065000000	  49.5861000000
C	  48.7745000000	  43.8639000000	  55.2317000000
H	  45.2278000000	  40.8745000000	  52.4030000000
H	  46.0066000000	  41.5518000000	  50.7977000000
H	  48.4144000000	  44.6176000000	  49.0927000000
H	  49.2199000000	  44.9368000000	  50.6308000000
H	  47.9037000000	  45.7989000000	  54.7983000000
H	  46.7178000000	  44.5085000000	  54.7438000000
P	  43.8182000000	  44.0936000000	  49.9627000000
F	  42.6266000000	  46.2768000000	  51.9110000000
F	  41.4142000000	  44.6111000000	  51.9528000000
F	  42.0016000000	  45.6855000000	  53.7343000000
F	  44.5986000000	  44.4823000000	  45.4512000000
F	  43.2991000000	  44.7210000000	  47.1304000000
F	  45.0181000000	  46.0016000000	  46.8705000000
F	  40.8943000000	  40.4258000000	  50.0537000000
F	  41.7113000000	  41.8033000000	  51.5609000000
F	  40.7202000000	  42.5859000000	  49.8779000000
O	  44.4095000000	  44.5578000000	  51.4780000000
O	  45.2615000000	  44.1902000000	  49.1058000000
O	  43.8129000000	  42.5210000000	  50.2353000000
C	  43.6421000000	  44.2830000000	  52.6287000000
C	  45.3145000000	  43.8366000000	  47.7315000000
C	  42.8999000000	  41.6570000000	  49.5533000000
C	  42.4141000000	  45.2007000000	  52.5979000000
C	  44.5316000000	  44.7424000000	  46.7578000000
C	  41.5112000000	  41.6101000000	  50.2332000000
H	  43.3484000000	  43.2092000000	  52.7334000000
H	  44.3248000000	  44.3694000000	  53.5713000000
H	  46.3708000000	  43.7786000000	  47.3467000000
H	  44.9659000000	  42.7894000000	  47.6325000000
H	  42.7193000000	  42.0367000000	  48.5153000000
H	  43.3926000000	  40.7329000000	  49.4155000000
