45

Li	  12.5279000000	  58.5357000000	  56.6966000000
O	  12.0344000000	  60.0824006887	  57.8681000000
O	  10.2745000000	  61.0873906887	  58.8428336622
C	  12.4491000000	  60.4019506887	  59.2065236622
C	  11.0774000000	  60.6811206887	  59.8741036622
C	  10.8719000000	  60.8553606887	  57.6679000000
H	  12.9332000000	  59.4834506887	  59.6449636622
H	  13.0570000000	  61.3134106887	  59.2180536622
H	  10.7613000000	  59.7782406887	  60.4072736622
H	  11.3553000000	  61.5234306887	  60.5608536622
H	  11.0776000000	  61.8209806887	  57.2449000000
H	  10.2326000000	  60.4281406887	  56.8885000000
O	  13.5913000000	  59.7389106887	  55.7834000000
O	  13.0668000000	  61.8026206887	  55.0145000000
C	  14.6471000000	  60.5879806887	  56.2081000000
C	  13.9722000000	  61.9689306887	  56.0596000000
C	  12.9543000000	  60.4322106887	  54.7540000000
H	  14.8845000000	  60.3511206887	  57.2238000000
H	  15.5623000000	  60.5390006887	  55.6077000000
H	  13.4394000000	  62.1273406887	  56.9612000000
H	  14.6687000000	  62.7708606887	  55.8407000000
H	  13.4847000000	  60.1848306887	  53.8279000000
H	  11.8938000000	  60.1680206887	  54.5490000000
O	  10.7729000000	  57.9013000000	  56.5343000000
O	   8.6697300000	  57.5356000000	  55.8739000000
C	  10.0669000000	  57.5076000000	  57.6276000000
C	   8.6805800000	  57.7750000000	  57.2743000000
C	  10.0133000000	  57.4766000000	  55.4863000000
H	  10.1890000000	  56.4459000000	  57.8684000000
H	  10.4361000000	  58.0679000000	  58.4992000000
H	   7.9463300000	  57.1383000000	  57.8047000000
H	   8.3176000000	  58.8819506887	  57.3804000000
H	  10.1012000000	  58.2470000000	  54.7451000000
H	  10.2402000000	  56.4339000000	  55.1585000000
O	  13.7145000000	  56.9575000000	  56.8563000000
O	  15.8057000000	  57.5558000000	  57.3730000000
C	  13.9821000000	  56.5695000000	  58.2266000000
C	  15.4776000000	  56.7895000000	  58.4450000000
C	  14.9713000000	  57.0849000000	  56.3389000000
H	  13.5476000000	  57.2618000000	  58.9782836622
H	  13.5859000000	  55.5514000000	  58.3325000000
H	  15.6457000000	  57.3837000000	  59.4213436622
H	  16.0816000000	  55.8585000000	  58.4610000000
H	  15.2062000000	  56.0976000000	  55.9649000000
H	  15.0531000000	  57.7185000000	  55.4726000000
