42

Li	  24.5423000000	  36.7108000000	  50.6459000000
O	  21.9036000000	  34.4960000000	  48.1215000000
O	  23.1684000000	  35.9302000000	  49.3697000000
C	  20.9606000000	  35.0746000000	  48.9892000000
C	  21.8643000000	  35.8208000000	  49.9986000000
C	  22.9540000000	  35.3993000000	  48.1238000000
H	  20.3362000000	  35.8473000000	  48.5491000000
H	  20.3185000000	  34.2790000000	  49.4496000000
H	  21.4794000000	  36.7974000000	  50.2104000000
H	  22.0189000000	  35.2615000000	  50.9241000000
H	  23.8707000000	  34.9176000000	  47.7434000000
H	  22.6996000000	  36.2179000000	  47.3964000000
O	  24.1285000000	  33.1761000000	  52.3929000000
O	  24.9595000000	  34.9222000000	  51.2395000000
C	  24.3051000000	  32.8118000000	  51.0175000000
C	  25.1769000000	  33.8527000000	  50.4450000000
C	  24.8071000000	  34.4311000000	  52.5301000000
H	  24.7886000000	  31.8962000000	  50.8930000000
H	  23.3463000000	  32.8385000000	  50.5041000000
H	  26.1476000000	  33.3997000000	  50.5511000000
H	  25.0720000000	  33.9721000000	  49.3563000000
H	  24.2691000000	  35.1341000000	  53.1116000000
H	  25.8219000000	  34.1364000000	  52.8800000000
O	  25.7722000000	  37.2967000000	  49.4571000000
O	  27.8606000000	  37.7298000000	  48.7351000000
C	  25.5245000000	  37.8787000000	  48.1732000000
C	  26.9927000000	  38.1519000000	  47.6548000000
C	  27.0618000000	  36.8274000000	  49.3822000000
H	  24.8904000000	  37.3592000000	  47.4912000000
H	  24.9910000000	  38.8171000000	  48.3246000000
H	  27.3051000000	  37.5371000000	  46.8554000000
H	  27.2548000000	  39.2231000000	  47.5008000000
H	  27.6239000000	  36.7896000000	  50.2234000000
H	  27.1227000000	  35.9419000000	  48.7131000000
S	  24.1725000000	  38.2353000000	  51.9450000000
S	  25.1120000000	  38.0002000000	  53.8256000000
S	  25.4936000000	  39.9037000000	  54.7968000000
S	  29.2375000000	  43.2276000000	  54.9268000000
S	  27.9568000000	  44.7512000000	  54.1941000000
S	  28.5781000000	  46.5542000000	  54.9620000000
S	  28.2583000000	  41.6731000000	  55.9974000000
S	  27.5731000000	  40.0820000000	  54.8963000000
