77

Li	  55.4313000000	  16.1624000000	   8.8919400000
O	  55.3223000000	  15.3395000000	  12.4573000000
O	  55.8885000000	  16.3016000000	  10.6530000000
C	  56.7114000000	  15.2087000000	  12.5123000000
C	  57.1015000000	  15.7344000000	  11.1212000000
C	  55.0760000000	  16.4569000000	  11.7691000000
H	  56.9382000000	  16.0263000000	  13.3063000000
H	  57.1620000000	  14.3097000000	  12.8661000000
H	  57.8004000000	  16.5822000000	  11.0937000000
H	  57.4477000000	  14.8606000000	  10.5719000000
H	  54.0720000000	  16.7361000000	  11.5907000000
H	  55.3844000000	  17.2978000000	  12.3419000000
P	  52.8498000000	  15.1559000000	   7.9689900000
F	  53.4098000000	  12.1500000000	   7.9677700000
F	  52.8877000000	  11.2976000000	   9.9169800000
F	  51.5345000000	  12.7629000000	   8.8541500000
F	  49.7920000000	  15.0682000000	   9.1615000000
F	  48.7903000000	  16.9953000000	   9.1390300000
F	  49.7269000000	  16.2349000000	   7.3792500000
F	  52.2762000000	  16.5690000000	   5.2028900000
F	  53.9693000000	  17.4910000000	   4.1468400000
F	  54.1060000000	  15.5169000000	   4.8324100000
O	  53.9788000000	  14.4958000000	   8.9900300000
O	  52.1649000000	  16.1172000000	   9.2117700000
O	  54.1963000000	  16.1225000000	   7.4766300000
C	  53.5953000000	  13.4902000000	   9.8241200000
C	  51.0597000000	  17.0301000000	   9.0446400000
C	  54.1272000000	  17.1803000000	   6.5243100000
C	  52.7787000000	  12.3916000000	   9.1311800000
C	  49.7945000000	  16.2742000000	   8.7113800000
C	  53.5982000000	  16.6758000000	   5.1786400000
H	  54.4763000000	  12.9730000000	  10.2492000000
H	  52.9790000000	  13.9052000000	  10.5475000000
H	  50.8934000000	  17.5538000000	   9.9463700000
H	  51.2825000000	  17.7473000000	   8.2795100000
H	  53.6285000000	  18.0842000000	   6.8718100000
H	  55.1445000000	  17.4993000000	   6.2861700000
P	  57.5134000000	  14.8696000000	   7.0833100000
F	  58.4204000000	  11.0177000000	   8.9059300000
F	  58.8852530386	  12.0283000000	   7.1556500000
F	  58.9355030386	  13.1159000000	   9.0511400000
F	  58.9296530386	  16.7674000000	   4.2865900000
F	  59.6850330386	  14.8734000000	   4.9049500000
F	  59.1607230386	  15.1709000000	   2.8223900000
F	  59.5886030386	  16.8922000000	   6.7989700000
F	  59.9158930386	  18.2206000000	   8.3891000000
F	  59.6623930386	  16.0876000000	   8.7830700000
O	  56.3919000000	  13.6489000000	   7.4002300000
O	  56.9602000000	  15.6276000000	   5.6655900000
O	  57.0668000000	  16.0645000000	   8.1919300000
C	  56.7947000000	  12.5037000000	   8.1650900000
C	  57.4054000000	  15.0996000000	   4.4471300000
C	  57.7285000000	  17.3476000000	   8.1184300000
C	  58.2644000000	  12.1472000000	   8.3117400000
C	  58.8247830386	  15.4806000000	   4.1049000000
C	  59.2880330386	  17.1427000000	   8.0413600000
H	  56.4250000000	  12.6479000000	   9.1467400000
H	  56.2924000000	  11.7305000000	   7.7172000000
H	  57.3110000000	  14.0179000000	   4.5548800000
H	  56.6862000000	  15.4106000000	   3.6953000000
H	  57.3936000000	  17.9578000000	   7.2432500000
H	  57.3638000000	  17.8234000000	   9.0112200000
N	  56.2240000000	  20.2673000000	   9.5159900000
S	  57.3484000000	  21.0326000000	  10.2547000000
O	  56.8368000000	  22.0865000000	  11.0624000000
O	  58.3456000000	  20.1246000000	  10.6972000000
C	  58.1934000000	  21.8639000000	   8.8641400000
F	  59.3357130386	  22.3446000000	   9.3291800000
F	  57.4648000000	  22.8397000000	   8.3762900000
F	  58.4988000000	  20.9441000000	   7.9308500000
S	  54.8605000000	  19.6443000000	   9.9436700000
O	  54.5395000000	  19.9131000000	  11.3691000000
O	  54.7081000000	  18.2866000000	   9.4343000000
C	  53.6555000000	  20.7141000000	   9.0802000000
F	  52.4034000000	  20.2538000000	   9.1768200000
F	  53.6806000000	  21.9449000000	   9.5519900000
F	  53.8529000000	  20.8241000000	   7.7604600000
