60

Li	  52.3264000000	  30.4166000000	  23.6532000000
O	  53.8182000000	  31.4091000000	  20.0456000000
O	  53.3297000000	  30.3683000000	  22.0457000000
C	  52.7241000000	  30.5273000000	  19.8523000000
C	  53.1188000000	  29.5023000000	  20.9786000000
C	  54.1848000000	  31.2889000000	  21.4065000000
H	  51.7983000000	  30.9773000000	  20.2050000000
H	  52.6002000000	  30.1181000000	  18.8370000000
H	  52.2152000000	  28.8447000000	  21.1650000000
H	  54.0450000000	  29.0006000000	  20.7239000000
H	  55.2375000000	  31.0064000000	  21.4969000000
H	  54.1943000000	  32.2363000000	  21.9885000000
P	  51.3144000000	  28.3721000000	  24.7491000000
F	  50.1660000000	  27.0115000000	  29.0562000000
F	  49.1854000000	  28.1721000000	  27.3116000000
F	  50.4152000000	  26.4342000000	  27.0077000000
F	  48.8888000000	  30.5072000000	  22.5752000000
F	  48.9106000000	  28.5296000000	  23.4809000000
F	  47.4037000000	  29.9153000000	  23.9293000000
F	  54.7249000000	  25.6780000000	  23.9968000000
F	  53.1194000000	  25.9100000000	  25.4522000000
F	  52.7103000000	  25.8418000000	  23.2121000000
O	  52.0311000000	  28.5467000000	  26.2816000000
O	  50.8540000000	  29.9508000000	  24.6313000000
O	  52.7493000000	  28.6182000000	  24.0442000000
C	  51.4183000000	  28.5155000000	  27.5916000000
C	  49.5530000000	  30.3077000000	  24.7655000000
C	  53.8899000000	  27.8038000000	  24.1154000000
C	  50.2548000000	  27.4857000000	  27.7587000000
C	  48.6754000000	  29.8030000000	  23.6829000000
C	  53.6022000000	  26.2440000000	  24.2313000000
H	  52.2155000000	  28.3339000000	  28.3650000000
H	  51.0891000000	  29.5156000000	  27.8259000000
H	  49.1046000000	  29.8211000000	  25.6500000000
H	  49.4182000000	  31.3979000000	  24.8559000000
H	  54.4832000000	  28.1159000000	  23.2637000000
H	  54.4854000000	  28.1820000000	  24.9460000000
N	  51.9611000000	  34.3585000000	  22.3583000000
S	  50.9253000000	  33.3304000000	  22.8088000000
O	  51.3938000000	  31.9706000000	  22.6587000000
O	  50.1464000000	  33.5984000000	  23.9895000000
C	  49.6900000000	  33.6248000000	  21.5073000000
F	  48.5904000000	  32.8598000000	  21.4343000000
F	  50.2677000000	  33.5305000000	  20.3456000000
F	  49.2131000000	  34.7904000000	  21.4985000000
S	  53.1362000000	  34.9797000000	  23.2420000000
O	  54.4263000000	  34.5296000000	  22.8383000000
O	  52.8625000000	  34.9995000000	  24.6633000000
C	  53.1446000000	  36.7250000000	  22.7835000000
F	  53.4820000000	  36.9198000000	  21.5043000000
F	  51.9477000000	  37.3278000000	  22.8956000000
F	  53.9173000000	  37.4686000000	  23.5043000000
S	  58.5300000000	  26.1170000000	  18.0849000000
S	  59.5810330386	  27.0447000000	  19.7079000000
S	  58.6686730386	  28.8852000000	  20.2533000000
S	  56.5632000000	  31.1364000000	  24.2489000000
S	  55.1486000000	  30.9465000000	  25.6742000000
S	  53.3060000000	  31.8291000000	  25.1718000000
S	  57.4869000000	  29.3456000000	  23.6726000000
S	  57.1072000000	  28.7085000000	  21.7237000000
