42

Li	   2.4363200000	  33.0889000000	  55.5506000000
P	   1.7214700000	  34.6947000000	  57.1916000000
F	   2.9237200000	  37.5134000000	  57.3149000000
F	   2.4210300000	  38.8847000000	  55.7881000000
F	   0.9104469614	  37.6713000000	  56.7278000000
F	  -1.4748530386	  35.2185000000	  57.4903000000
F	  -1.0525530386	  35.4062000000	  55.4960000000
F	  -2.7466530386	  34.1924000000	  56.0441000000
F	   4.4368300000	  33.8297000000	  60.6621736622
F	   4.2641900000	  35.7922000000	  59.8136136622
F	   2.5332600000	  34.5430000000	  59.9939136622
O	   2.7027600000	  35.3218000000	  56.0061000000
O	   0.8654469614	  33.7010000000	  56.2282000000
O	   2.8733400000	  33.4837000000	  57.5967000000
C	   2.3395500000	  36.5779000000	  55.3179000000
C	  -0.4787530386	  33.3444000000	  56.5177000000
C	   4.0749600000	  33.8554000000	  58.2546000000
C	   2.1381600000	  37.6860000000	  56.3313000000
C	  -1.4445530386	  34.5638000000	  56.3732000000
C	   3.8578700000	  34.5446000000	  59.6930436622
H	   3.2089500000	  36.8690000000	  54.7034000000
H	   1.4668100000	  36.5051000000	  54.6607000000
H	  -0.6420530386	  32.4958000000	  55.8829000000
H	  -0.4717530386	  32.9184000000	  57.5190000000
H	   4.5072400000	  32.8434000000	  58.4476000000
H	   4.6643800000	  34.4349000000	  57.5559000000
S	   2.9391600000	  30.7333000000	  55.8192000000
S	   1.4047500000	  29.6630000000	  56.9895000000
S	   1.3037469614	  30.1783000000	  58.9651736622
S	  -1.5830530386	  26.6028000000	  59.6586336622
S	  -1.7089530386	  24.7598000000	  60.6207636622
S	  -3.5672530386	  23.7857000000	  60.0287636622
S	  -0.7156530386	  28.1670000000	  60.8274336622
S	   1.1879469614	  28.4930000000	  60.1687636622
S	  -2.9475530386	  24.7867000000	  56.6123000000
S	  -2.3305530386	  26.5684000000	  55.6305000000
S	  -3.2435530386	  28.3195000000	  56.2282000000
S	  -0.5127530386	  31.0138000000	  53.0421000000
S	   0.1944469614	  33.0407000000	  53.0273000000
S	   2.2792700000	  33.4210000000	  53.4170000000
S	  -2.3565530386	  30.9226000000	  54.1949000000
S	  -1.9821530386	  29.9580000000	  55.9476000000
