63

Li	  20.6549000000	  18.1823000000	  17.6027000000
O	  18.9793000000	  17.9185000000	  18.7194000000
O	  17.1943000000	  17.4761000000	  20.0689000000
C	  19.0420000000	  18.7951000000	  19.8095000000
C	  18.1252000000	  18.0414000000	  20.9273000000
C	  17.8661000000	  17.1361000000	  18.8714000000
H	  20.0641000000	  18.9257000000	  20.1869000000
H	  18.4934000000	  19.6853000000	  19.6058000000
H	  18.7694000000	  17.2347000000	  21.4706000000
H	  17.7683000000	  18.6890000000	  21.6824000000
H	  17.2241000000	  17.1494000000	  18.0020000000
H	  18.2141000000	  16.1245000000	  18.9821000000
O	  20.9769000000	  19.9621000000	  18.3078000000
O	  20.2509000000	  22.0993000000	  18.6069000000
C	  21.9922000000	  20.6558000000	  19.0407000000
C	  21.4983000000	  22.1039000000	  19.1728000000
C	  20.2881000000	  21.0334000000	  17.7594000000
H	  22.2801000000	  20.0872000000	  19.9672000000
H	  22.9588000000	  20.5562000000	  18.4900000000
H	  21.3432000000	  22.6133000000	  20.1639000000
H	  22.0405000000	  22.8203000000	  18.5581000000
H	  20.9160000000	  21.3406000000	  16.8960000000
H	  19.2583000000	  20.8653000000	  17.5032000000
P	  21.0524000000	  18.3144000000	  14.9571000000
F	  24.7978000000	  19.7299000000	  16.2767000000
F	  25.3833000000	  17.8827000000	  15.2598000000
F	  23.7362000000	  19.1329000000	  14.5245000000
F	  21.2571000000	  17.3526000000	  12.1966000000
F	  22.6065000000	  15.8471000000	  11.7300000000
F	  20.5815000000	  15.2736000000	  12.4352000000
F	  18.7216000000	  19.0880000000	  13.0476000000
F	  16.8491000000	  19.6142000000	  14.1219000000
F	  18.7562000000	  20.6036000000	  14.5622000000
O	  22.0023000000	  18.3745000000	  16.3387000000
O	  21.2289000000	  16.7005000000	  14.8846000000
O	  19.7527000000	  18.3705000000	  15.9755000000
C	  23.3558000000	  17.8433000000	  16.4709000000
C	  22.1446000000	  16.0796000000	  13.9722000000
C	  18.4305000000	  18.3798000000	  15.3913000000
C	  24.3647000000	  18.6383000000	  15.6023000000
C	  21.6217000000	  16.1608000000	  12.5449000000
C	  18.1713000000	  19.4415000000	  14.2005000000
H	  23.7811000000	  17.8562000000	  17.4546000000
H	  23.2863000000	  16.7835000000	  16.2299000000
H	  23.1043000000	  16.5437000000	  13.9990000000
H	  22.2746000000	  15.0363000000	  14.1960000000
H	  18.1773000000	  17.4089000000	  15.0194000000
H	  17.7027000000	  18.3603000000	  16.1599000000
N	  21.6676000000	  14.7391000000	  19.4902000000
S	  22.1753000000	  16.1308000000	  20.0737000000
O	  22.0085000000	  17.2607000000	  19.1525000000
O	  21.7383000000	  16.3655000000	  21.4470000000
C	  24.0113000000	  15.9683000000	  20.1971000000
F	  24.4930000000	  15.4318000000	  19.1484000000
F	  24.4090000000	  15.2341000000	  21.2396000000
F	  24.5330000000	  17.1818000000	  20.2987000000
S	  20.6983000000	  14.4907000000	  18.2937000000
O	  20.3882000000	  15.6810000000	  17.5278000000
O	  19.6111000000	  13.5831000000	  18.5825000000
C	  21.8466000000	  13.6320000000	  17.1840000000
F	  22.8734000000	  14.4979000000	  16.9217000000
F	  22.3940000000	  12.5785000000	  17.7246000000
F	  21.3543000000	  13.2932000000	  15.9566000000
