42

Li	  37.6488000000	  37.4422000000	  17.2680000000
P	  35.8494000000	  37.2573000000	  15.1739000000
F	  34.6131000000	  34.5465000000	  15.6386000000
F	  35.6039000000	  34.7163000000	  13.6115000000
F	  35.8629000000	  32.8903000000	  14.8192000000
F	  33.1578000000	  37.3179000000	  16.3396000000
F	  32.4999000000	  39.1425000000	  17.1696000000
F	  33.4564000000	  39.2363000000	  15.3963000000
F	  36.7390000000	  39.2251000000	  11.3918000000
F	  36.4218000000	  37.2169000000	  12.2080000000
F	  35.0943000000	  38.8597000000	  12.7777000000
O	  37.1581000000	  36.2194000000	  15.2841000000
O	  35.7275000000	  37.6411000000	  16.7589000000
O	  36.5943000000	  38.6580000000	  14.8827000000
C	  36.9406000000	  34.7586000000	  15.5175000000
C	  34.8613000000	  38.6865000000	  17.1874000000
C	  37.2446000000	  38.9905000000	  13.6861000000
C	  35.6412000000	  34.2182000000	  14.8728000000
C	  33.5069000000	  38.5981000000	  16.4954000000
C	  36.3567000000	  38.5543000000	  12.4938000000
H	  37.7756000000	  34.2704000000	  15.0496000000
H	  37.0586000000	  34.6039000000	  16.6027000000
H	  34.6695000000	  38.6631000000	  18.2755000000
H	  35.4881000000	  39.5536000000	  16.9405000000
H	  37.4185000000	  40.0294000000	  13.7412000000
H	  38.2506000000	  38.4493000000	  13.6194000000
S	  37.0499000000	  40.1659000000	  29.1396000000
S	  37.9391000000	  38.8386000000	  27.8144000000
S	  38.8937000000	  40.0337000000	  26.4563000000
S	  38.5039000000	  38.8652000000	  21.2027000000
S	  37.0483000000	  37.5699000000	  20.3342000000
S	  37.7327000000	  36.1014000000	  18.9192000000
S	  39.0835000000	  38.5395000000	  23.2425000000
S	  38.0940000000	  39.8449000000	  24.5180000000
S	  38.5353000000	  39.4002000000	  17.5706000000
S	  39.7555000000	  38.0693000000	  16.4666000000
S	  41.1680000000	  36.8034000000	  17.4904000000
S	  44.6816000000	  38.0207000000	  20.5414000000
S	  46.6991000000	  38.0387000000	  21.2412000000
S	  46.9721000000	  36.9643000000	  23.1429000000
S	  44.4158000000	  36.8801000000	  18.9055000000
S	  43.0299000000	  37.7001000000	  17.5749000000
