42

Li	  10.6099000000	  42.3923000000	  51.0380000000
P	  11.6176000000	  42.7729000000	  48.5547000000
F	  11.9409000000	  46.0021000000	  49.1282000000
F	  14.0507000000	  46.3429000000	  49.7209000000
F	  13.6776000000	  44.7753000000	  48.2774000000
F	  13.3753000000	  42.6670000000	  45.4026000000
F	  14.4608000000	  40.7590000000	  45.4841000000
F	  12.4545000000	  40.7466000000	  45.7982000000
F	   8.5611400000	  43.0738000000	  47.5860000000
F	   9.7030000000	  41.9175000000	  46.0671000000
F	   7.7459000000	  41.3385000000	  46.8431000000
O	  11.9416000000	  43.4147000000	  50.0655000000
O	  12.7922000000	  41.5633000000	  48.4124000000
O	  10.3768000000	  41.7998000000	  49.1208000000
C	  13.0496000000	  44.3331000000	  50.3824000000
C	  13.8532000000	  41.5396000000	  47.4661000000
C	   9.5806000000	  41.0187000000	  48.2474000000
C	  13.1245000000	  45.4152000000	  49.3438000000
C	  13.4953000000	  41.4474000000	  45.9856000000
C	   8.9063100000	  41.8251000000	  47.1663000000
H	  12.8648000000	  44.8056000000	  51.4111000000
H	  13.9559000000	  43.7234000000	  50.5255000000
H	  14.2805000000	  42.4650000000	  47.6207000000
H	  14.6347000000	  40.7556000000	  47.6640000000
H	  10.2764000000	  40.3536000000	  47.7891000000
H	   8.8735300000	  40.5600000000	  48.8325000000
S	   8.9627100000	  43.8426000000	  56.7408000000
S	   8.7326500000	  45.7422000000	  57.5640000000
S	   7.9814600000	  47.1557000000	  56.2266000000
S	  10.2758000000	  45.4217000000	  52.3832000000
S	   9.5400400000	  43.5041000000	  52.8217000000
S	   8.5365400000	  42.8450000000	  51.0924000000
S	   9.0087400000	  47.0033000000	  52.8471000000
S	   9.4400600000	  47.8186000000	  54.8457000000
S	  12.0676000000	  40.8865000000	  52.0322000000
S	  10.4946000000	  39.8130000000	  52.9589000000
S	   9.3416900000	  38.5850000000	  51.6438000000
S	   4.7457900000	  36.8073000000	  51.4633000000
S	   2.8039200000	  37.4576000000	  51.0465000000
S	   1.5472600000	  35.8327000000	  50.4615000000
S	   6.1895400000	  37.5544000000	  50.0099000000
S	   7.4188900000	  39.0948000000	  51.0133000000
