51

Li	  15.5434000000	  43.4764000000	  18.7779000000
P	  17.3443000000	  42.0805000000	  17.4338000000
F	  15.1284000000	  39.6558000000	  14.3916000000
F	  17.0157000000	  40.7505000000	  14.8697000000
F	  16.3076000000	  39.2285000000	  16.1668000000
F	  18.2323000000	  43.7920000000	  14.9957000000
F	  16.3167000000	  44.8701000000	  15.5679000000
F	  18.2147000000	  46.0237000000	  15.2347000000
F	  18.2738000000	  43.3448000000	  20.3414000000
F	  18.2255000000	  41.9215000000	  21.8607000000
F	  19.4683000000	  41.4604000000	  20.1970000000
O	  15.8633000000	  42.3279000000	  16.7566000000
O	  17.3758000000	  43.6956000000	  17.9275000000
O	  16.5423000000	  41.8437000000	  18.8664000000
C	  15.1275000000	  41.2062000000	  16.2047000000
C	  18.0058000000	  44.6821000000	  17.1692000000
C	  17.1723000000	  41.2771000000	  19.9850000000
C	  15.9210000000	  40.2082000000	  15.3602000000
C	  17.6838000000	  44.8463000000	  15.6763000000
C	  18.3496000000	  42.0639000000	  20.5872000000
H	  14.8236000000	  40.6136000000	  17.0060000000
H	  14.2262000000	  41.5462000000	  15.7108000000
H	  17.8372000000	  45.5773000000	  17.6733000000
H	  19.0768000000	  44.6723000000	  17.1152000000
H	  16.3420000000	  41.3759000000	  20.7112000000
H	  17.4199000000	  40.2713000000	  19.7038000000
P	  13.9383000000	  45.1775000000	  19.9660000000
F	  13.4352000000	  41.6544000000	  21.2297000000
F	  12.2288000000	  43.3029000000	  22.1242000000
F	  11.2672000000	  41.5794000000	  21.2778000000
F	  17.1280000000	  47.0358000000	  22.4270000000
F	  16.3688000000	  47.6047000000	  20.5165000000
F	  15.0228000000	  46.8320000000	  21.9929000000
F	  12.5928000000	  46.0093000000	  15.6278000000
F	  13.5292000000	  44.1456000000	  16.4455000000
F	  12.0493000000	  45.2221000000	  17.6412000000
O	  13.6227000000	  43.6659000000	  19.3826000000
O	  15.4442000000	  44.5990000000	  20.4362000000
O	  14.7636000000	  45.6536000000	  18.5561000000
C	  12.3271000000	  43.0071000000	  19.6955000000
C	  16.5092000000	  45.3625000000	  20.8737000000
C	  14.0823000000	  46.2369000000	  17.4483000000
C	  12.3121000000	  42.4013000000	  21.1179000000
C	  16.2180000000	  46.7183000000	  21.4725000000
C	  13.0560000000	  45.3621000000	  16.7536000000
H	  11.5028000000	  43.7308000000	  19.6541000000
H	  12.2440000000	  42.3358000000	  18.8233000000
H	  16.9813000000	  44.6630000000	  21.6129000000
H	  17.2904000000	  45.4603000000	  20.0721000000
H	  13.6470000000	  47.1705000000	  17.6844000000
H	  14.8789000000	  46.6233000000	  16.7338000000
