51

Li	  25.3334000000	  36.8866000000	  19.4888000000
P	  25.2126000000	  39.2400000000	  19.0967000000
F	  23.4696000000	  40.5661000000	  17.2978000000
F	  24.9176000000	  39.3097000000	  16.1242000000
F	  22.8073000000	  39.4344000000	  15.5007000000
F	  22.6709000000	  39.5380000000	  20.9241000000
F	  23.1143000000	  39.8631000000	  23.0870000000
F	  24.2296000000	  40.8955000000	  21.6257000000
F	  28.4466000000	  40.3677000000	  19.0182000000
F	  29.2758000000	  39.3663000000	  17.2259000000
F	  27.3384000000	  40.1534000000	  17.1429000000
O	  23.9090000000	  38.3286000000	  18.6331000000
O	  25.4045000000	  38.3900000000	  20.5523000000
O	  26.1755000000	  38.0468000000	  18.3818000000
C	  23.3189000000	  38.2344000000	  17.3251000000
C	  24.6636000000	  38.6707000000	  21.7626000000
C	  27.5957000000	  38.1113000000	  18.3444000000
C	  23.6742000000	  39.4630000000	  16.5279000000
C	  23.6043000000	  39.7280000000	  21.8475000000
C	  28.1847000000	  39.5335000000	  17.9881000000
H	  23.7362000000	  37.3877000000	  16.7408000000
H	  22.2581000000	  38.0936000000	  17.3603000000
H	  24.2523000000	  37.7222000000	  22.1018000000
H	  25.3901000000	  38.9232000000	  22.5168000000
H	  27.8663000000	  37.7650000000	  19.3401000000
H	  27.9695000000	  37.2972000000	  17.6848000000
P	  24.9269000000	  34.4882000000	  19.3958000000
F	  27.7882000000	  33.3599000000	  20.1686000000
F	  28.4031000000	  33.9279000000	  22.1274000000
F	  26.3611000000	  33.1868000000	  21.8126000000
F	  20.5915000000	  34.4823000000	  19.7977000000
F	  21.7844000000	  35.6260000000	  18.2622000000
F	  22.2904000000	  33.5783000000	  18.7874000000
F	  26.5576000000	  32.5941000000	  17.9092000000
F	  26.7326000000	  32.7307000000	  15.7295000000
F	  27.4233000000	  34.3148000000	  16.9199000000
O	  26.2758000000	  35.4208000000	  19.7357000000
O	  24.0099000000	  35.6709000000	  20.0316000000
O	  24.6936000000	  34.9583000000	  17.8454000000
C	  26.8462000000	  35.3951000000	  21.0295000000
C	  22.6404000000	  35.4213000000	  20.4207000000
C	  25.0577000000	  34.1143000000	  16.7019000000
C	  27.3537000000	  33.8860000000	  21.2900000000
C	  21.8657000000	  34.7562000000	  19.2913000000
C	  26.4661000000	  33.3740000000	  16.8311000000
H	  27.6067000000	  36.1288000000	  21.1642000000
H	  26.0599000000	  35.5836000000	  21.7638000000
H	  22.5804000000	  34.6782000000	  21.2073000000
H	  22.1839000000	  36.2808000000	  20.8683000000
H	  24.2344000000	  33.3766000000	  16.6085000000
H	  25.0361000000	  34.9140000000	  15.9302000000
