52

Li	  40.6173000000	  52.4397000000	  29.6169000000
O	  39.9888000000	  50.6121000000	  29.3773000000
O	  39.8661000000	  48.7241000000	  28.1572000000
C	  40.3838000000	  49.6513000000	  30.3399000000
C	  40.2717000000	  48.3126000000	  29.4740000000
C	  39.1959000000	  49.9231000000	  28.3843000000
H	  41.4563000000	  49.8323000000	  30.7097000000
H	  39.7722000000	  49.7702000000	  31.2753000000
H	  41.1089000000	  47.5917000000	  29.4875000000
H	  39.4175000000	  47.7575000000	  29.8738000000
H	  38.1543000000	  49.8259000000	  28.8529000000
H	  39.1370000000	  50.4890000000	  27.4383000000
P	  40.6631000000	  54.0062000000	  27.6275000000
F	  42.1556000000	  53.2780000000	  25.1923000000
F	  42.4509000000	  51.1153000000	  25.0094000000
F	  40.4852000000	  51.8274000000	  25.5662000000
F	  38.6171000000	  56.1021000000	  27.9998000000
F	  37.2171000000	  54.5652000000	  27.4830000000
F	  36.8547000000	  55.8834000000	  29.0822000000
F	  41.8559000000	  56.7228000000	  27.3291000000
F	  42.9403000000	  57.6011000000	  28.9974000000
F	  43.9345000000	  56.5523000000	  27.3123000000
O	  41.3125000000	  52.4912000000	  27.9867000000
O	  39.4418000000	  53.4248000000	  28.6449000000
O	  41.3378000000	  54.7156000000	  28.9501000000
C	  42.1610000000	  51.8216000000	  27.1579000000
C	  38.6332000000	  54.3169000000	  29.3992000000
C	  42.6789000000	  55.2228000000	  28.9692000000
C	  41.7734000000	  52.0544000000	  25.6708000000
C	  37.8085000000	  55.1998000000	  28.4846000000
C	  42.8739000000	  56.5287000000	  28.1328000000
H	  43.2111000000	  51.9791000000	  27.3147000000
H	  41.9780000000	  50.7619000000	  27.4122000000
H	  37.9677000000	  53.5674000000	  29.8764000000
H	  39.2343000000	  55.0645000000	  30.0116000000
H	  43.0076000000	  55.2537000000	  30.0122000000
H	  43.2572000000	  54.4598000000	  28.5041000000
N	  41.5834000000	  53.1699000000	  33.3003000000
S	  42.6271000000	  52.8521000000	  32.1669000000
O	  42.0100000000	  52.1843000000	  31.0079000000
O	  43.4902000000	  53.9322000000	  31.8408000000
C	  43.6035000000	  51.6748000000	  32.9833000000
F	  42.8163000000	  50.6788000000	  33.2459000000
F	  44.1400000000	  51.9869000000	  34.2263000000
F	  44.5986000000	  51.1725000000	  32.1808000000
S	  40.0350000000	  52.7324000000	  33.2286000000
O	  39.7042000000	  51.8045000000	  34.2518000000
O	  39.4772000000	  52.5156000000	  31.8986000000
C	  39.1064000000	  54.2563000000	  33.6458000000
F	  39.3390000000	  54.4373000000	  34.9482000000
F	  39.4885000000	  55.4181000000	  33.0699000000
F	  37.8070000000	  54.2395000000	  33.5165000000
