42

Li	  57.4867000000	  11.6732000000	  41.0147000000
P	  58.7941130386	  12.7284000000	  38.9532000000
F	  60.9775530386	  10.2035000000	  39.7071000000
F	  60.7531130386	   8.8167200000	  38.1084000000
F	  60.7215030386	  11.0161000000	  37.6839000000
F	  58.4781000000	  14.7125000000	  35.8650000000
F	  59.8422130386	  13.0858000000	  36.0910000000
F	  58.3562000000	  13.0981000000	  34.4010000000
F	  59.3717430386	  15.5621000000	  38.9765000000
F	  59.1627530386	  16.7862000000	  40.6927000000
F	  60.4561430386	  15.0351000000	  40.7637000000
O	  58.4913000000	  11.1965000000	  39.4415000000
O	  57.4485000000	  12.9245000000	  37.9475000000
O	  58.1863000000	  13.2548000000	  40.3450000000
C	  58.8975830386	  10.0269000000	  38.6796000000
C	  57.4704000000	  12.7018000000	  36.5162000000
C	  58.1544000000	  14.6291000000	  40.7875000000
C	  60.4406230386	   9.9934500000	  38.5178000000
C	  58.5891000000	  13.4717000000	  35.6971000000
C	  59.2931530386	  15.5455000000	  40.3111000000
H	  58.5029000000	   9.1567300000	  39.1660000000
H	  58.4694000000	  10.1185000000	  37.6630000000
H	  57.7508000000	  11.6608000000	  36.4608000000
H	  56.4467000000	  12.7053000000	  36.1811000000
H	  57.2008000000	  15.0334000000	  40.4617000000
H	  58.0817000000	  14.6445000000	  41.8537000000
S	  55.4409000000	  11.5225000000	  41.8198000000
S	  55.5382000000	  10.0852000000	  40.2456000000
S	  54.4347000000	  10.6447000000	  38.5498000000
S	  50.4363000000	  11.4877000000	  36.6934000000
S	  49.3059000000	  10.5291000000	  35.1888000000
S	  48.9863000000	  11.7645000000	  33.4923000000
S	  51.0517000000	  10.2358000000	  38.3149000000
S	  52.8750000000	   9.4143600000	  37.8913000000
S	  63.8705030386	  16.4801000000	  50.5811000000
S	  62.9588630386	  14.6975000000	  49.8605000000
S	  63.9516130386	  13.9092000000	  48.0574000000
S	  62.1512530386	  12.6369000000	  43.6140000000
S	  60.1312630386	  12.8353000000	  43.0024000000
S	  59.3924330386	  10.9510000000	  42.2970000000
S	  62.2371230386	  12.5229000000	  45.6737000000
S	  62.6449830386	  14.3935000000	  46.4873000000
