56

Li	  37.1377000000	  31.1928000000	   5.6129800000
P	  36.4214000000	  29.0304000000	   6.9736800000
F	  36.5254000000	  26.9848000000	   4.9914500000
F	  35.9970000000	  27.4491000000	   2.8115700000
F	  37.7673000000	  28.3970000000	   3.7485500000
F	  39.9151000000	  26.9729000000	   8.7934600000
F	  38.0535000000	  27.7690000000	   9.4591100000
F	  38.1132000000	  26.5501000000	   7.6445200000
F	  34.4127000000	  32.2752000000	   9.1315400000
F	  34.9733000000	  32.1171000000	   7.0202500000
F	  34.0483000000	  30.4595000000	   7.8920000000
O	  35.8472000000	  29.7950000000	   5.5601500000
O	  38.0052000000	  28.8062000000	   6.5020500000
O	  36.9090000000	  30.4905000000	   7.4940800000
C	  35.4597000000	  29.0284000000	   4.3860800000
C	  39.0315000000	  28.6720000000	   7.4285100000
C	  36.2490000000	  31.1267000000	   8.6167500000
C	  36.5184000000	  27.8936000000	   3.9811200000
C	  38.7227000000	  27.4523000000	   8.3823000000
C	  34.8562000000	  31.4777000000	   8.1299400000
H	  34.4426000000	  28.5548000000	   4.5172400000
H	  35.3417000000	  29.6829000000	   3.5267600000
H	  39.9753000000	  28.5473000000	   6.9638000000
H	  39.1218000000	  29.5509000000	   8.0259900000
H	  36.1868000000	  30.3299000000	   9.4535600000
H	  36.6745000000	  32.0321000000	   9.0947300000
N	  40.1487000000	  31.5225000000	   2.6132300000
S	  39.0955000000	  31.0834000000	   1.6020400000
O	  37.7096000000	  30.8015000000	   2.0595000000
O	  39.1590000000	  31.8131000000	   0.3808263378
C	  39.6865000000	  29.4116000000	   1.0396263378
F	  38.8593000000	  28.8568000000	   0.1476263378
F	  39.9290000000	  28.5474000000	   1.9931600000
F	  40.7788000000	  29.5868000000	   0.3504263378
S	  39.9710000000	  31.9803000000	   4.0943400000
O	  38.9815000000	  31.2056000000	   4.8173200000
O	  40.2211000000	  33.3873000000	   4.2226100000
C	  41.4325000000	  31.2942000000	   4.8243600000
F	  42.4901000000	  31.7099000000	   4.1512100000
F	  41.6341000000	  31.5707000000	   6.1033900000
F	  41.4322000000	  30.0040000000	   4.7070500000
N	  35.9148000000	  33.5249000000	   1.9558900000
S	  36.2755000000	  34.2837000000	   0.6504263378
O	  36.2273000000	  35.6832000000	   0.8368263378
O	  37.3366000000	  33.6971000000	  -0.0751736622
C	  34.8345000000	  33.8726000000	  -0.3339736622
F	  33.7622000000	  34.1764000000	   0.2992263378
F	  34.7494000000	  32.5874000000	  -0.6055736622
F	  34.8529000000	  34.5434000000	  -1.5183736622
S	  36.3358000000	  33.8209000000	   3.4392200000
O	  37.6093000000	  34.4437000000	   3.6161300000
O	  36.1926000000	  32.6115000000	   4.2449300000
C	  35.1235000000	  35.0545000000	   4.0733300000
F	  34.9563000000	  36.0375000000	   3.2463200000
F	  33.9037000000	  34.4926000000	   4.2057200000
F	  35.4774000000	  35.6290000000	   5.2205500000
