74

Li	  26.5941000000	  49.4175000000	  43.4223000000
P	  21.1760000000	  50.6073000000	  39.8110000000
F	  20.0791000000	  54.5395000000	  37.8667000000
F	  18.4215000000	  53.4695000000	  38.8943000000
F	  20.4861000000	  53.6144000000	  39.6490000000
F	  19.3612000000	  47.6602000000	  40.3859000000
F	  18.6483000000	  49.3570000000	  39.2066000000
F	  18.5087000000	  47.5085000000	  38.4448000000
F	  22.2186000000	  48.9970000000	  42.0654000000
F	  24.1793000000	  48.7407000000	  41.0166000000
F	  24.1684000000	  49.3738000000	  42.9943000000
O	  21.2773000000	  51.4662000000	  38.4295000000
O	  21.6534000000	  49.0989000000	  39.1940000000
O	  22.7190000000	  51.1265000000	  40.1875000000
C	  20.1466000000	  52.1343000000	  37.8882000000
C	  20.6453000000	  48.3563000000	  38.4337000000
C	  23.3759000000	  50.9484000000	  41.4070000000
C	  19.7196000000	  53.4650000000	  38.5704000000
C	  19.3177000000	  48.1904000000	  39.1506000000
C	  23.4766000000	  49.4777000000	  41.8865000000
H	  20.3752000000	  52.3486000000	  36.8751000000
H	  19.3107000000	  51.4684000000	  37.8070000000
H	  20.5008000000	  48.6925000000	  37.3940000000
H	  20.9877000000	  47.3506000000	  38.2062000000
H	  24.3555000000	  51.3963000000	  41.3114000000
H	  22.8788000000	  51.5084000000	  42.2225000000
P	  27.5180000000	  48.0026000000	  45.4056000000
F	  31.6866000000	  49.3893000000	  45.5653000000
F	  29.8754000000	  49.5755000000	  46.7502000000
F	  30.3826000000	  47.6898000000	  45.5765000000
F	  24.0855000000	  49.4815000000	  47.8841000000
F	  24.3710000000	  47.3883000000	  47.4143000000
F	  25.9728000000	  48.6235000000	  48.1722000000
F	  25.4427000000	  45.3584000000	  44.7199000000
F	  25.4197000000	  45.9612000000	  42.6262000000
F	  26.1049000000	  43.9998000000	  43.2186000000
O	  28.0644000000	  49.4310000000	  44.6965000000
O	  26.0294000000	  48.5856000000	  45.0219000000
O	  27.5814000000	  47.2405000000	  43.9158000000
C	  29.4556000000	  49.6725000000	  44.6415000000
C	  25.2379000000	  49.2041000000	  46.0089000000
C	  27.5062000000	  45.8134000000	  43.8551000000
C	  30.3703000000	  49.0162000000	  45.6434000000
C	  24.9595000000	  48.5834000000	  47.3677000000
C	  26.0415000000	  45.2947000000	  43.5921000000
H	  29.8021000000	  49.4315000000	  43.6069000000
H	  29.4869000000	  50.7366000000	  44.9249000000
H	  25.5344000000	  50.2119000000	  46.0169000000
H	  24.3070000000	  48.9797000000	  45.4663000000
H	  28.2638000000	  45.3960000000	  43.1330000000
H	  27.8633000000	  45.4287000000	  44.8479000000
N	  26.2521000000	  53.1088000000	  45.4426000000
S	  27.5316000000	  52.6902000000	  46.2722000000
O	  27.4222000000	  51.4323000000	  46.9654000000
O	  28.7939000000	  53.0721000000	  45.6520000000
C	  27.4722000000	  53.9680000000	  47.5846000000
F	  26.3376000000	  54.0557000000	  48.2388000000
F	  27.7678000000	  55.1858000000	  47.1268000000
F	  28.3606000000	  53.7925000000	  48.5063000000
S	  25.6783000000	  52.4873000000	  44.1185000000
O	  24.2860000000	  52.2841000000	  44.0893000000
O	  26.5041000000	  51.3739000000	  43.6620000000
C	  25.9291000000	  53.8787000000	  43.0107000000
F	  25.3087000000	  53.7257000000	  41.8221000000
F	  25.5124000000	  54.9932000000	  43.6151000000
F	  27.1967000000	  54.1323000000	  42.7016000000
S	  27.4259000000	  49.4152000000	  41.3830000000
S	  29.0267000000	  48.1601000000	  41.1253000000
S	  30.4536000000	  49.2194000000	  39.9917000000
S	  35.2222000000	  48.6246000000	  39.1091000000
S	  36.8481000000	  49.4170000000	  40.1380000000
S	  38.0076000000	  50.8514000000	  39.1421000000
S	  33.7719000000	  47.8429000000	  40.4159000000
S	  32.3527000000	  49.3194000000	  40.9231000000
