63

Li	  47.8400000000	  31.8107000000	  53.0525000000
O	  49.2271000000	  28.4809000000	  54.9556000000
O	  48.9925000000	  30.2980000000	  53.7415000000
C	  49.5286000000	  28.0774000000	  53.6357000000
C	  49.4411000000	  29.3308000000	  52.7801000000
C	  49.4698000000	  29.8356000000	  54.9500000000
H	  50.5623000000	  27.7970000000	  53.5721000000
H	  48.8616000000	  27.2324000000	  53.3509000000
H	  50.5191000000	  29.5718000000	  52.3693000000
H	  48.7253000000	  29.3261000000	  51.9470000000
H	  49.0822000000	  30.3487000000	  55.7980000000
H	  50.5447000000	  29.8908000000	  55.1083000000
O	  44.8947000000	  28.8082000000	  53.6770000000
O	  45.8358000000	  30.8719000000	  53.5508000000
C	  44.8510000000	  29.1335000000	  52.3366000000
C	  44.8191000000	  30.6740000000	  52.5408000000
C	  45.7778000000	  29.6898000000	  54.3019000000
H	  45.7985000000	  28.8021000000	  51.8332000000
H	  44.0395000000	  28.6714000000	  51.8404000000
H	  44.9391000000	  31.3412000000	  51.6725000000
H	  43.8853000000	  30.9323000000	  52.9656000000
H	  45.5061000000	  29.8142000000	  55.3839000000
H	  46.7923000000	  29.3013000000	  54.3356000000
P	  48.1737000000	  34.0815000000	  54.1692000000
F	  51.0669000000	  35.5274000000	  53.1789000000
F	  50.8827000000	  34.8743000000	  55.2325000000
F	  52.5977000000	  34.2339000000	  54.0260000000
F	  46.1546000000	  36.1481000000	  54.2746000000
F	  47.5347000000	  36.5563000000	  52.6186000000
F	  45.4452000000	  36.7129000000	  52.3111000000
F	  46.7093000000	  34.6344000000	  56.8175000000
F	  47.0029000000	  33.0631000000	  58.2850000000
F	  48.7434000000	  33.8664000000	  57.3335000000
O	  49.2389000000	  33.3727000000	  53.1514000000
O	  46.8970000000	  33.7392000000	  53.1752000000
O	  47.9900000000	  32.6604000000	  54.9236000000
C	  50.6538000000	  33.2689000000	  53.3953000000
C	  45.9860000000	  34.5884000000	  52.5855000000
C	  47.1940000000	  32.4999000000	  56.1412000000
C	  51.3024000000	  34.5354000000	  54.0087000000
C	  46.3463000000	  36.0695000000	  52.9835000000
C	  47.4344000000	  33.6031000000	  57.2130000000
H	  50.6150000000	  32.5511000000	  54.2263000000
H	  51.2290000000	  32.8186000000	  52.5883000000
H	  46.2538000000	  34.5790000000	  51.5424000000
H	  44.9500000000	  34.3265000000	  52.5795000000
H	  46.1610000000	  32.6355000000	  55.9866000000
H	  47.1980000000	  31.5354000000	  56.6286000000
N	  48.8319000000	  32.1567000000	  49.2525000000
S	  49.6233000000	  33.4788000000	  49.5708000000
O	  48.9693000000	  34.5386000000	  50.3363000000
O	  51.0367000000	  33.2155000000	  49.7435000000
C	  49.5593000000	  34.1133000000	  47.8956000000
F	  48.3245000000	  34.0401000000	  47.4213000000
F	  50.4112000000	  33.4354000000	  47.1068000000
F	  49.7873000000	  35.4193000000	  47.8000000000
S	  47.3843000000	  31.8020000000	  49.8638000000
O	  46.3152000000	  32.7176000000	  49.5153000000
O	  47.4541000000	  31.3576000000	  51.2221000000
C	  47.0355000000	  30.2900000000	  48.9948000000
F	  45.8022000000	  29.8552000000	  49.2101000000
F	  47.1588000000	  30.3971000000	  47.6647000000
F	  47.7463000000	  29.3002000000	  49.4306000000
