52

Li	  38.8866000000	  15.2256000000	  29.8682000000
O	  37.7545000000	  14.7757000000	  28.4754000000
O	  35.6274000000	  14.0965000000	  28.1216000000
C	  37.7658000000	  13.3378000000	  28.2402000000
C	  36.3334000000	  12.8679000000	  28.0074000000
C	  36.4884000000	  15.1431000000	  28.0462000000
H	  38.3448000000	  13.2581000000	  27.3492000000
H	  38.2996000000	  12.7707000000	  28.9644000000
H	  36.1611000000	  12.4542000000	  27.0099000000
H	  36.0962000000	  12.0425000000	  28.7176000000
H	  35.9833000000	  15.9408000000	  28.5774000000
H	  36.5712000000	  15.6047000000	  27.0813000000
P	  40.9159000000	  16.7388000000	  29.6053000000
F	  43.4338000000	  18.5330000000	  32.7257000000
F	  43.4776000000	  17.8263000000	  30.6745000000
F	  41.8593000000	  19.0415000000	  31.3428000000
F	  42.2232000000	  14.7096000000	  27.3967000000
F	  43.4379000000	  15.5195000000	  29.1056000000
F	  43.7688000000	  13.4761000000	  28.4672000000
F	  39.3906000000	  19.4313000000	  27.1924000000
F	  39.0338000000	  20.5827000000	  28.8663000000
F	  40.8309000000	  19.4215000000	  28.8207000000
O	  40.6821000000	  16.6945000000	  31.2697000000
O	  40.6216000000	  15.0950000000	  29.5757000000
O	  39.3465000000	  16.9873000000	  29.2004000000
C	  41.7987000000	  16.9017000000	  32.1683000000
C	  41.6407000000	  14.1830000000	  29.4873000000
C	  38.7975000000	  18.3197000000	  29.2516000000
C	  42.6568000000	  18.0865000000	  31.7411000000
C	  42.8626000000	  14.4805000000	  28.5566000000
C	  39.5262000000	  19.4747000000	  28.4713000000
H	  41.3791000000	  17.0285000000	  33.1740000000
H	  42.3354000000	  15.9359000000	  32.0688000000
H	  42.0276000000	  14.1664000000	  30.5211000000
H	  41.2484000000	  13.1731000000	  29.2771000000
H	  37.7099000000	  18.3123000000	  28.9015000000
H	  38.8800000000	  18.5778000000	  30.3032000000
N	  37.5683000000	  14.0179000000	  33.1486000000
S	  38.5792000000	  13.0791000000	  32.4370000000
O	  38.2895000000	  11.6524000000	  32.4993000000
O	  39.1634000000	  13.4751000000	  31.1925000000
C	  39.9533000000	  13.3121000000	  33.6167000000
F	  40.0066000000	  14.5402000000	  34.0943000000
F	  41.1637000000	  13.0216000000	  33.0308000000
F	  39.7636000000	  12.5232000000	  34.6687000000
S	  37.0563000000	  15.2677000000	  32.5117000000
O	  37.6926000000	  15.6934000000	  31.2752000000
O	  36.7621000000	  16.2576000000	  33.5107000000
C	  35.3642000000	  14.7302000000	  31.9269000000
F	  34.7583000000	  15.6054000000	  31.1734000000
F	  35.4925000000	  13.6324000000	  31.1642000000
F	  34.5472000000	  14.3941000000	  32.8800000000
