39

Li	  48.7739000000	  22.3162000000	   2.2997900000
N	  46.4899000000	  23.0169000000	  -0.4071736622
S	  47.1604000000	  24.2686000000	   0.2833263378
O	  46.3317000000	  25.4426000000	   0.4857263378
O	  48.0153000000	  23.9007000000	   1.3895900000
C	  48.4092000000	  24.6655000000	  -0.9024736622
F	  47.8770000000	  25.0139000000	  -2.0584736622
F	  49.1744000000	  23.6247000000	  -1.1018736622
F	  49.2086000000	  25.6541000000	  -0.3963736622
S	  45.0960000000	  22.9564000000	  -1.0955736622
O	  44.6046000000	  24.2111000000	  -1.6010736622
O	  44.1861000000	  22.1327000000	  -0.3956736622
C	  45.5948000000	  22.0393000000	  -2.5353736622
F	  44.6911000000	  22.0651000000	  -3.4796736622
F	  46.6692000000	  22.5779000000	  -3.0409736622
F	  45.8666000000	  20.7842000000	  -2.3036736622
N	  45.6803000000	  24.1009000000	   3.9164300000
S	  46.7754000000	  23.4297000000	   4.8533900000
O	  46.2406000000	  22.9043000000	   6.1012200000
O	  47.7173000000	  22.6560000000	   4.0759500000
C	  47.8291000000	  24.8856000000	   5.3783500000
F	  48.7399000000	  24.3687000000	   6.1775200000
F	  47.2312000000	  25.8119000000	   6.0571500000
F	  48.4095000000	  25.4617000000	   4.3092200000
S	  44.1746000000	  24.2747000000	   4.2252700000
O	  43.7499000000	  25.5546000000	   3.8314100000
O	  43.7364000000	  23.7192000000	   5.4650900000
C	  43.4668000000	  23.2115000000	   2.9840400000
F	  43.7507000000	  21.9166000000	   3.2651400000
F	  42.2133000000	  23.1896000000	   2.8894100000
F	  43.9760000000	  23.3446000000	   1.7578400000
S	  48.1272000000	  20.3891000000	   1.7488300000
S	  48.5656000000	  19.1722000000	   0.0453263378
S	  50.0951000000	  17.6922000000	   0.4018263378
S	  53.1510000000	  20.5195000000	   2.2237400000
S	  51.4996000000	  21.1936000000	   3.3235500000
S	  50.6762000000	  23.1329000000	   2.8194700000
S	  53.0426000000	  18.4923000000	   1.7311300000
S	  52.0259000000	  18.1154000000	  -0.1318736622
