59

Li	   1.7094000000	  44.5916000000	  20.6750000000
P	   2.3530100000	  46.3422000000	  22.8396000000
F	   1.1297469614	  49.7304000000	  19.7744000000
F	   0.1665469614	  48.3699000000	  21.3074000000
F	   2.0070100000	  49.4266000000	  21.7868000000
F	   0.0320469614	  45.1744000000	  26.2734000000
F	   1.7744600000	  46.2870000000	  25.5281000000
F	  -0.1986530386	  46.4462000000	  24.6271000000
F	   4.7430700000	  45.9393000000	  25.0600000000
F	   6.5873300000	  46.0835000000	  24.0998000000
F	   4.8980400000	  47.5011000000	  23.5637000000
O	   1.8437700000	  46.4542000000	  21.2654000000
O	   1.2911469614	  45.0731000000	  22.9759000000
O	   3.5793700000	  45.2345000000	  22.5140000000
C	   2.1955700000	  47.5902000000	  20.4198000000
C	   0.9560469614	  44.4912000000	  24.1944000000
C	   4.9297200000	  45.2914000000	  22.7288000000
C	   1.3267469614	  48.8688000000	  20.7952000000
C	   0.6512469614	  45.5942000000	  25.1924000000
C	   5.2696800000	  46.2802000000	  23.8903000000
H	   3.2164200000	  47.8688000000	  20.4095000000
H	   2.0215300000	  47.3126000000	  19.4185000000
H	   0.0788469614	  43.8567000000	  24.0423000000
H	   1.7671600000	  43.7609000000	  24.5139000000
H	   5.4131100000	  44.3921000000	  22.9786000000
H	   5.4081200000	  45.5336000000	  21.7826000000
P	  -0.0814530386	  42.7823000000	  21.2369000000
F	  -1.3550530386	  39.7666000000	  21.1264000000
F	  -2.7318530386	  41.3230000000	  20.4157000000
F	  -2.3435530386	  39.6188000000	  19.2350000000
F	   1.0947469614	  40.1084000000	  22.1741000000
F	   3.2661800000	  40.0182000000	  22.6324000000
F	   1.9280800000	  41.3002000000	  23.8237000000
F	  -1.7280530386	  45.1687000000	  23.0659000000
F	  -3.3668530386	  45.9487000000	  21.8393000000
F	  -2.9994530386	  43.8652000000	  21.9369000000
O	  -0.3724530386	  42.4031000000	  19.6402000000
O	   1.5114100000	  42.8978000000	  21.2289000000
O	  -0.1652530386	  44.3940000000	  20.9113000000
C	  -0.6611530386	  41.1115000000	  19.2872000000
C	   2.4885500000	  41.8296000000	  21.4751000000
C	  -1.4535530386	  45.1271000000	  20.7879000000
C	  -1.7889530386	  40.4209000000	  20.0436000000
C	   2.1552500000	  40.7793000000	  22.6221000000
C	  -2.4070530386	  44.9826000000	  21.9476000000
H	  -0.8417530386	  41.0821000000	  18.2472000000
H	   0.2717469614	  40.5739000000	  19.4073000000
H	   2.6287000000	  41.3972000000	  20.4893000000
H	   3.3611200000	  42.3351000000	  21.8324000000
H	  -1.2296530386	  46.1804000000	  20.7892000000
H	  -1.9650530386	  45.0332000000	  19.8336000000
S	   3.3141200000	  44.3776000000	  19.0780000000
S	   1.4956100000	  44.8540000000	  18.0896000000
S	   1.4495000000	  43.7480000000	  16.3323000000
S	  -1.1313530386	  43.1930000000	  12.5706000000
S	  -0.2087530386	  44.5926000000	  11.3421000000
S	  -1.2399530386	  45.1806000000	   9.5996100000
S	  -1.5501530386	  43.7941000000	  14.4972000000
S	  -0.4219530386	  42.7586000000	  15.9404000000
