66

Li	  30.6795000000	  26.2634000000	   5.0385500000
P	  28.1810000000	  27.0916000000	   5.7165900000
F	  25.7781000000	  26.3850000000	   4.8131600000
F	  25.3465000000	  25.4922000000	   2.8560100000
F	  25.6631000000	  24.2420000000	   4.6047500000
F	  27.4625000000	  27.5479000000	   8.5459000000
F	  26.7168000000	  25.5412000000	   8.3013500000
F	  27.9839000000	  26.0195000000	   9.9749600000
F	  29.4366000000	  30.0340000000	   7.1631000000
F	  29.5701000000	  31.4474000000	   5.5631400000
F	  27.8397000000	  30.2050000000	   5.7788400000
O	  28.3132000000	  26.4875000000	   4.1647500000
O	  28.6988000000	  25.7485000000	   6.4403700000
O	  29.6447000000	  27.8131000000	   5.6047500000
C	  27.5821000000	  25.3723000000	   3.6721800000
C	  29.0167000000	  25.7897000000	   7.7747000000
C	  29.7200000000	  29.0980000000	   5.0024100000
C	  26.0358000000	  25.3844000000	   4.0001600000
C	  27.8059000000	  26.2635000000	   8.6364100000
C	  29.1655000000	  30.2355000000	   5.8960400000
H	  27.7317000000	  25.2980000000	   2.5944100000
H	  28.0812000000	  24.4525000000	   3.9011200000
H	  29.3059000000	  24.7692000000	   8.0685600000
H	  29.8802000000	  26.4326000000	   7.9191500000
H	  30.8120000000	  29.2058000000	   4.7666000000
H	  29.2587000000	  29.1469000000	   3.9830900000
P	  33.0530000000	  25.5917000000	   6.5787200000
F	  33.2522000000	  23.0175000000	   7.8003600000
F	  31.3308000000	  23.4771000000	   8.5464100000
F	  31.5703000000	  21.5114000000	   7.6907100000
F	  35.7203000000	  24.7937000000	   7.8208600000
F	  35.4857000000	  23.1507000000	   6.4713500000
F	  37.3419000000	  24.1907000000	   6.4530500000
F	  32.8147000000	  28.9921000000	   7.4131900000
F	  34.7519000000	  28.0039000000	   7.3764500000
F	  34.4582000000	  29.7857000000	   6.3442000000
O	  31.7076000000	  24.7406000000	   6.2194400000
O	  34.1306000000	  25.1684000000	   5.3644500000
O	  32.5766000000	  26.8752000000	   5.6091600000
C	  31.6089000000	  23.3178000000	   6.2678500000
C	  35.5828000000	  25.3104000000	   5.5215000000
C	  33.3737000000	  27.9867000000	   5.3240900000
C	  31.9666000000	  22.7991000000	   7.6325800000
C	  36.0044000000	  24.3008000000	   6.6221800000
C	  33.8653000000	  28.6704000000	   6.6559100000
H	  30.6675000000	  22.9479000000	   5.9181400000
H	  32.3618000000	  22.8827000000	   5.6027000000
H	  36.0522000000	  24.9084000000	   4.6309600000
H	  35.9297000000	  26.3545000000	   5.7866200000
H	  34.2694000000	  27.6558000000	   4.7903700000
H	  32.9857000000	  28.6140000000	   4.5599200000
N	  31.3872000000	  25.4694000000	   1.4424500000
S	  31.1733000000	  26.9895000000	   1.7334200000
O	  30.2403000000	  27.7383000000	   0.8800263378
O	  31.1124000000	  27.2858000000	   3.1468600000
C	  32.7602000000	  27.6900000000	   1.3203263378
F	  33.6373000000	  27.0747000000	   2.1106000000
F	  32.8803000000	  29.0008000000	   1.5974000000
F	  33.1285000000	  27.6013000000	   0.0556263378
S	  30.9763000000	  24.2161000000	   2.2886000000
O	  30.1530000000	  23.2812000000	   1.6220500000
O	  30.7111000000	  24.4702000000	   3.6490300000
C	  32.4990000000	  23.2695000000	   2.3010500000
F	  32.9257000000	  23.0034000000	   1.0423263378
F	  33.5105000000	  23.8730000000	   2.9016400000
F	  32.2347000000	  22.1455000000	   2.9354900000
