56

Li	   8.6342300000	  44.7651000000	  43.7611000000
P	   9.6413800000	  44.2937000000	  46.0671000000
F	  13.0788000000	  44.1673000000	  45.5846000000
F	  13.5902000000	  46.2067000000	  45.9335000000
F	  12.1075000000	  45.3327000000	  47.1584000000
F	   7.4372100000	  44.1120000000	  48.6614000000
F	   9.6001400000	  44.2779000000	  49.0557000000
F	   8.2306000000	  45.4926000000	  50.0782000000
F	   8.5419700000	  41.4826000000	  47.2801000000
F	   8.0979600000	  39.9506000000	  45.6848000000
F	   9.9453200000	  41.2700000000	  45.5662000000
O	  10.3648000000	  45.0777000000	  44.8443000000
O	   8.4380500000	  45.3772000000	  46.4711000000
O	   8.7512800000	  43.4390000000	  44.8726000000
C	  11.5011000000	  45.9378000000	  45.0392000000
C	   8.5142100000	  45.9963000000	  47.8270000000
C	   7.8938900000	  42.3546000000	  45.3274000000
C	  12.5951000000	  45.3424000000	  45.9216000000
C	   8.4264300000	  44.9507000000	  48.9022000000
C	   8.6684900000	  41.2196000000	  45.9785000000
H	  11.8685000000	  46.3477000000	  44.1043000000
H	  11.0530000000	  46.8348000000	  45.4370000000
H	   9.4749100000	  46.4959000000	  47.9756000000
H	   7.7866200000	  46.8482000000	  47.9016000000
H	   7.1249700000	  42.6789000000	  45.9694000000
H	   7.4386700000	  42.1424000000	  44.3193000000
N	  11.0461000000	  43.0296000000	  40.0392000000
S	  11.7443000000	  43.6716000000	  38.7342000000
O	  10.8860000000	  43.8198000000	  37.5677000000
O	  12.6711000000	  44.7179000000	  39.0362000000
C	  12.8422000000	  42.2765000000	  38.2558000000
F	  13.3129000000	  42.3967000000	  37.0307000000
F	  12.2226000000	  41.1170000000	  38.1317000000
F	  13.8649000000	  42.0791000000	  39.0600000000
S	  11.4410000000	  43.3881000000	  41.5219000000
O	  10.1874000000	  43.8716000000	  42.1532000000
O	  12.7072000000	  44.0463000000	  41.7788000000
C	  11.7003000000	  41.6977000000	  42.2510000000
F	  10.6186000000	  41.0137000000	  41.9723000000
F	  12.6608000000	  41.0544000000	  41.6679000000
F	  11.8790000000	  41.6718000000	  43.5594000000
N	  10.7837000000	  47.7013000000	  42.0890000000
S	  11.9279000000	  47.8018000000	  41.0309000000
O	  12.8913000000	  46.7684000000	  41.1946000000
O	  11.4738000000	  48.0138000000	  39.7019000000
C	  12.7734000000	  49.3833000000	  41.4968000000
F	  13.8291000000	  49.7198000000	  40.8397000000
F	  13.1247000000	  49.4092000000	  42.8104000000
F	  11.9279000000	  50.4094000000	  41.3629000000
S	   9.3205000000	  47.2113000000	  41.8822000000
O	   8.6707800000	  46.6581000000	  43.0880000000
O	   9.2576900000	  46.4133000000	  40.6323000000
C	   8.4171700000	  48.7855000000	  41.4883000000
F	   7.1298300000	  48.6375000000	  41.4676000000
F	   8.6425800000	  49.6748000000	  42.4780000000
F	   8.7472100000	  49.3201000000	  40.3466000000
