49

Li	  20.6908000000	  57.2618000000	  42.4685000000
P	  23.2930000000	  56.8970000000	  41.0601000000
F	  25.8393000000	  56.5945000000	  42.6018000000
F	  26.2607000000	  58.3676000000	  41.6939000000
F	  26.5728000000	  58.1955000000	  43.8590000000
F	  22.7736000000	  52.5476000000	  41.3095000000
F	  22.6803000000	  54.1147000000	  39.8650000000
F	  24.2863000000	  54.0570000000	  41.4704000000
F	  22.1941000000	  58.3085000000	  37.1552000000
F	  23.9204000000	  58.1302000000	  38.4435000000
F	  22.6237000000	  56.4245000000	  38.0405000000
O	  23.3486000000	  57.3891000000	  42.6648000000
O	  21.9569000000	  56.0044000000	  41.5467000000
O	  22.4660000000	  58.2730000000	  40.6526000000
C	  24.2638000000	  58.3948000000	  43.0241000000
C	  22.1503000000	  54.7256000000	  42.1105000000
C	  21.7433000000	  58.1526000000	  39.4236000000
C	  25.7278000000	  57.8928000000	  42.8340000000
C	  23.0171000000	  53.8559000000	  41.1331000000
C	  22.6787000000	  57.7368000000	  38.2427000000
H	  24.1586000000	  59.3079806887	  42.3483000000
H	  23.9877000000	  58.7366106887	  44.0301000000
H	  22.6265000000	  54.8769000000	  43.0480000000
H	  21.2099000000	  54.1557000000	  42.1056000000
H	  20.9710000000	  57.5412000000	  39.6336000000
H	  21.2704000000	  59.1023706887	  39.2327000000
N	  19.7039000000	  55.1664000000	  45.9033000000
S	  19.5012000000	  53.9608000000	  44.9363000000
O	  18.4449000000	  54.2072000000	  43.9920000000
O	  20.7202000000	  53.3077000000	  44.4594000000
C	  18.9111000000	  52.7102000000	  46.1005000000
F	  19.6775000000	  52.4889000000	  47.1251000000
F	  18.6217000000	  51.5308000000	  45.5558000000
F	  17.8162000000	  53.0959000000	  46.6744000000
S	  19.8564000000	  56.6671000000	  45.5121000000
O	  18.5550000000	  57.2800000000	  45.5031000000
O	  20.7928000000	  56.8437000000	  44.3773000000
C	  20.5868000000	  57.4666000000	  47.0038000000
F	  20.4399000000	  58.7809606887	  46.9982000000
F	  20.0074000000	  57.0197000000	  48.0912000000
F	  21.8926000000	  57.1100000000	  47.0500000000
S	  18.6641000000	  56.7005000000	  41.9357000000
S	  18.6756000000	  58.8442006887	  41.6112000000
S	  19.3745000000	  59.8885606887	  43.2951000000
S	  22.9952000000	  61.5212306887	  40.3748000000
S	  24.0401000000	  63.0229206887	  39.3662000000
S	  22.8644000000	  64.0416206887	  37.9177000000
S	  22.1348000000	  62.0138406887	  42.2884000000
S	  21.4348000000	  60.2394006887	  43.2042000000
