49

Li	   7.1008500000	  13.8484000000	  10.6842000000
P	   7.5841800000	  15.7330000000	   9.1191800000
F	  11.8773000000	  15.4365000000	   9.7315500000
F	  10.5190000000	  15.1630000000	   8.0232800000
F	  10.1891000000	  16.8358000000	   9.3300600000
F	   4.6720200000	  15.1632000000	   6.6468800000
F	   6.7933400000	  15.4768000000	   5.9909200000
F	   5.7068600000	  13.6572000000	   5.5253700000
F	   5.1185000000	  17.5306000000	   8.8825300000
F	   4.1981700000	  16.1623000000	  10.1613000000
F	   4.1325600000	  18.2454000000	  10.6481000000
O	   8.4499900000	  14.3710000000	   9.6716700000
O	   6.3986400000	  14.5921000000	   8.8443700000
O	   7.0179500000	  16.0883000000	  10.6437000000
C	   9.7702700000	  14.6025000000	  10.1308000000
C	   6.3532000000	  13.8506000000	   7.6701100000
C	   6.1885700000	  17.2162000000	  10.9763000000
C	  10.6029000000	  15.5736000000	   9.2665600000
C	   5.8969300000	  14.6280000000	   6.4427500000
C	   4.8544600000	  17.2952000000	  10.0984000000
H	   9.7753900000	  15.0384000000	  11.0970000000
H	  10.2315000000	  13.6507000000	  10.2626000000
H	   7.2966900000	  13.2701000000	   7.4837100000
H	   5.4351300000	  13.2052000000	   7.8336700000
H	   5.8819200000	  17.0905000000	  12.0096000000
H	   6.7579500000	  18.0906000000	  10.9215000000
N	   9.4972700000	  11.2972000000	  11.4992000000
S	   8.2603200000	  10.9398000000	  10.6635000000
O	   7.4390000000	   9.9036200000	  11.2494000000
O	   7.6095500000	  12.0331000000	   9.9938500000
C	   9.0428000000	  10.1646000000	   9.1926300000
F	   9.5419500000	   8.9398100000	   9.3469700000
F	  10.0084000000	  10.9533000000	   8.7505300000
F	   8.1512500000	  10.0901000000	   8.1955800000
S	   9.9676700000	  10.7357000000	  12.8611000000
O	  11.0754000000	   9.8186000000	  12.5786000000
O	   8.9208300000	  10.2935000000	  13.7516000000
C	  10.8058000000	  12.2182000000	  13.6165000000
F	  11.5891000000	  12.7871000000	  12.7360000000
F	   9.9632000000	  13.1305000000	  13.9876000000
F	  11.4009000000	  11.9575000000	  14.6770000000
S	   0.5110469614	   5.2600100000	  11.7335000000
S	   2.1635600000	   6.3751800000	  12.4470000000
S	   1.5049500000	   8.0796000000	  13.5581000000
S	   4.0204400000	  11.5394000000	  11.3481000000
S	   4.7525800000	  13.4337000000	  11.6358000000
S	   6.5893800000	  13.6044000000	  12.6628000000
S	   2.6480900000	  11.1979000000	  12.9351000000
S	   1.3200469614	   9.7296900000	  12.3583000000
