49

Li	  55.6902000000	  28.4395000000	  26.3812000000
P	  54.3147000000	  26.5940000000	  25.2495000000
F	  51.3336000000	  26.5694000000	  27.3312000000
F	  50.8224000000	  28.6769000000	  27.0248000000
F	  51.7435000000	  27.5092000000	  25.4033000000
F	  55.3961000000	  26.8241000000	  21.7038000000
F	  53.5238000000	  27.3100000000	  22.6345000000
F	  54.4039000000	  28.7814000000	  21.4142000000
F	  54.0740000000	  23.3632000000	  25.4486000000
F	  55.4887000000	  24.2141000000	  24.0173000000
F	  56.1344000000	  22.5389000000	  25.2124000000
O	  54.2300000000	  27.3084000000	  26.7760000000
O	  54.9408000000	  28.0357000000	  24.6912000000
O	  55.8565000000	  25.8583000000	  25.5474000000
C	  53.0976000000	  28.0690000000	  27.1557000000
C	  55.5972000000	  28.2419000000	  23.4572000000
C	  55.9295000000	  24.6935000000	  26.1946000000
C	  51.6960000000	  27.6640000000	  26.7303000000
C	  54.7250000000	  27.7650000000	  22.2796000000
C	  55.3815000000	  23.6109000000	  25.2105000000
H	  53.1609000000	  28.0231000000	  28.2778000000
H	  53.1864000000	  29.1013000000	  26.9322000000
H	  55.9192000000	  29.3197000000	  23.5407000000
H	  56.5819000000	  27.6767000000	  23.4167000000
H	  56.9337000000	  24.5054000000	  26.4405000000
H	  55.4444000000	  24.6710000000	  27.1736000000
N	  55.7333000000	  31.8766000000	  24.2250000000
S	  54.8969000000	  31.5859000000	  25.5038000000
O	  55.2668000000	  30.3605000000	  26.0725000000
O	  54.7831000000	  32.7312000000	  26.4016000000
C	  53.2206000000	  31.2840000000	  24.8153000000
F	  53.0707000000	  30.2515000000	  24.0457000000
F	  52.8625000000	  32.2816000000	  24.0599000000
F	  52.2018000000	  31.2790000000	  25.6400000000
S	  56.1936000000	  33.2941000000	  23.6579000000
O	  56.6903000000	  34.2266000000	  24.6127000000
O	  55.1819000000	  33.7773000000	  22.6838000000
C	  57.6118000000	  32.9652000000	  22.6402000000
F	  58.6514000000	  32.5959000000	  23.3704000000
F	  57.4014000000	  31.9560000000	  21.7684000000
F	  57.9487000000	  34.1162000000	  22.0778000000
S	  63.6790630386	  30.2427000000	  20.8929000000
S	  62.1919530386	  28.7698000000	  20.4071000000
S	  60.4595830386	  28.9848000000	  21.5036000000
S	  58.4439000000	  29.6717000000	  25.5698000000
S	  58.5297000000	  29.3682000000	  27.7047000000
S	  56.7902000000	  28.3853000000	  28.1939000000
S	  58.8904830386	  27.9081000000	  24.6264000000
S	  60.6493130386	  28.0689000000	  23.3907000000
