60

Li	  10.4355000000	  15.6913000000	  20.0436000000
O	  14.2820000000	  16.9936000000	  19.6802000000
O	  12.1654000000	  16.3378000000	  20.0439000000
C	  14.1127000000	  17.1519000000	  21.0702000000
C	  12.6251000000	  17.0097000000	  21.2576000000
C	  13.3149000000	  16.0245000000	  19.4027000000
H	  14.6672000000	  16.3562000000	  21.6186000000
H	  14.4733000000	  18.1227000000	  21.4178000000
H	  12.3957000000	  16.4428000000	  22.1387000000
H	  12.0116000000	  17.8710000000	  21.2760000000
H	  13.0463000000	  15.9207000000	  18.3662000000
H	  13.7203000000	  15.0420000000	  19.7471000000
P	  11.1477000000	  12.8689000000	  19.4354000000
F	  11.0621000000	  11.6212000000	  16.6843000000
F	  12.9310000000	  11.3220000000	  15.6452000000
F	  12.6550000000	  10.5725000000	  17.7994000000
F	  10.1439000000	  11.8836000000	  22.2686000000
F	  11.9895000000	  10.9514000000	  21.6981000000
F	  11.8032000000	  11.8300000000	  23.6978000000
F	   8.2792600000	  12.0635000000	  17.3763000000
F	   8.3627000000	  11.8088000000	  19.4377000000
F	   6.8031100000	  13.0743000000	  18.7173000000
O	  11.8178000000	  13.5860000000	  18.1080000000
O	  12.1049000000	  13.5670000000	  20.6191000000
O	  10.0080000000	  14.0984000000	  19.4998000000
C	  12.8103000000	  12.8930000000	  17.4010000000
C	  12.0048000000	  13.3027000000	  22.0072000000
C	   8.8859200000	  14.0127000000	  18.5866000000
C	  12.3198000000	  11.5611000000	  16.8990000000
C	  11.4333000000	  11.9507000000	  22.4292000000
C	   8.0650500000	  12.6902000000	  18.5051000000
H	  13.1981000000	  13.4370000000	  16.5195000000
H	  13.6661000000	  12.8169000000	  18.0787000000
H	  12.9686000000	  13.3949000000	  22.3922000000
H	  11.3718000000	  14.1067000000	  22.4317000000
H	   8.2170500000	  14.8066000000	  18.8314000000
H	   9.2161700000	  14.3519000000	  17.5500000000
N	  11.2703000000	  17.9008000000	  16.4116000000
S	  12.5006000000	  18.8436000000	  16.1025000000
O	  12.0921000000	  20.2365000000	  15.9771000000
O	  13.6635000000	  18.3908000000	  16.8412000000
C	  12.8496000000	  18.2713000000	  14.4167000000
F	  12.5780000000	  17.0021000000	  14.1068000000
F	  14.1003000000	  18.4096000000	  14.0639000000
F	  12.1763000000	  18.9585000000	  13.5020000000
S	   9.9928500000	  18.0353000000	  17.3197000000
O	   9.7405200000	  19.3204000000	  17.8657000000
O	   9.9857100000	  16.9844000000	  18.3546000000
C	   8.5305200000	  17.7527000000	  16.2663000000
F	   8.6146500000	  16.5732000000	  15.5909000000
F	   7.4646800000	  17.7998000000	  17.0349000000
F	   8.4453500000	  18.7352000000	  15.3456000000
S	   9.5226200000	  16.3127000000	  21.9258000000
S	   7.5226500000	  15.5329000000	  21.5512000000
S	   6.9183700000	  14.3281000000	  23.2121000000
S	   1.8084900000	  14.2387000000	  22.2050000000
S	   1.2546469614	  16.0809000000	  21.1926000000
S	  -0.1863530386	  17.2031000000	  22.2041000000
S	   3.4518100000	  14.3861000000	  23.4544000000
S	   5.1157100000	  13.3646000000	  22.6647000000
