67

Li	  29.8306000000	  24.0696000000	  55.2139000000
O	  29.6151000000	  26.8141000000	  58.5552000000
O	  29.4336000000	  25.4563000000	  56.8108000000
C	  28.8916000000	  25.7115000000	  59.0801136622
C	  28.7115000000	  24.7930000000	  57.8445000000
C	  29.4068000000	  26.7679000000	  57.2221000000
H	  29.4483000000	  25.1550000000	  59.8533636622
H	  27.9621000000	  26.1393000000	  59.4400936622
H	  29.1291000000	  23.8354000000	  58.0635000000
H	  27.7066000000	  24.6215000000	  57.5248000000
H	  28.4121000000	  27.1752000000	  56.9837000000
H	  30.2072000000	  27.4034000000	  56.7555000000
P	  32.1874000000	  23.4036000000	  54.8802000000
F	  33.5082000000	  23.7676000000	  52.4642000000
F	  32.8170000000	  22.9067000000	  50.7217000000
F	  31.7403000000	  24.5613000000	  51.4915000000
F	  34.1072000000	  24.9512000000	  56.5080000000
F	  34.1143000000	  25.7395000000	  54.4374000000
F	  34.2883000000	  27.0582000000	  56.0970000000
F	  33.4602000000	  21.1057000000	  56.0642000000
F	  32.1187000000	  19.6419000000	  57.0041000000
F	  31.5377000000	  20.5938000000	  55.1766000000
O	  30.9363000000	  23.0446000000	  53.8179000000
O	  31.5806000000	  24.9701000000	  54.9467000000
O	  31.2188000000	  23.0476000000	  56.1644000000
C	  31.2906000000	  22.5289000000	  52.5764000000
C	  32.2508000000	  25.9857000000	  55.7005000000
C	  31.4544000000	  21.9434000000	  57.0604000000
C	  32.3647000000	  23.4271000000	  51.8201000000
C	  33.7872000000	  25.8968000000	  55.7066000000
C	  32.2067000000	  20.7497000000	  56.3101000000
H	  31.7110000000	  21.5326000000	  52.8023000000
H	  30.5156000000	  22.3538000000	  51.8220000000
H	  32.0628000000	  26.9573000000	  55.2907000000
H	  31.8735000000	  25.9461000000	  56.7715000000
H	  32.0469000000	  22.2992000000	  57.8592000000
H	  30.6154000000	  21.6303000000	  57.6069000000
N	  27.0031000000	  20.7959000000	  55.9889000000
S	  27.6885000000	  20.5864000000	  57.3062000000
O	  28.9693000000	  19.8919000000	  57.1932000000
O	  27.5903000000	  21.6399000000	  58.2728000000
C	  26.5856000000	  19.3824000000	  58.0744000000
F	  25.3554000000	  19.9378000000	  58.2263000000
F	  26.9754000000	  18.9891000000	  59.2657436622
F	  26.4387000000	  18.3430000000	  57.2807000000
S	  27.3535000000	  21.9438000000	  54.9477000000
O	  28.4579000000	  22.7742000000	  55.2283000000
O	  26.2198000000	  22.6442000000	  54.4714000000
C	  27.8147000000	  21.0723000000	  53.4320000000
F	  28.9524000000	  20.5170000000	  53.5699000000
F	  26.9975000000	  20.1299000000	  52.9606000000
F	  28.0881000000	  21.8235000000	  52.4628000000
N	  28.1378000000	  27.9350000000	  54.0228000000
S	  27.1365000000	  26.7591000000	  53.7106000000
O	  26.7126000000	  25.9513000000	  54.8641000000
O	  26.0208000000	  27.0273000000	  52.8355000000
C	  28.0294000000	  25.5452000000	  52.7491000000
F	  28.9198000000	  24.9425000000	  53.5185000000
F	  28.6175000000	  26.1366000000	  51.7230000000
F	  27.2251000000	  24.5967000000	  52.1692000000
S	  27.9448000000	  29.4979000000	  53.9377000000
O	  26.6766000000	  29.8609000000	  53.3474000000
O	  29.0819000000	  30.2723000000	  53.5112000000
C	  27.7256000000	  29.8925000000	  55.6676000000
F	  26.6489000000	  29.3715000000	  56.1632000000
F	  28.7272000000	  29.5828000000	  56.4955000000
F	  27.4817000000	  31.1823000000	  55.8302000000
