45

Li	  23.1624000000	   6.2036300000	  55.2014000000
O	  22.6469000000	  10.3751000000	  55.4431000000
O	  22.3767000000	   8.2369700000	  55.3156000000
C	  21.8037000000	  10.2098000000	  54.3620000000
C	  21.2586000000	   8.8697400000	  54.6470000000
C	  23.3179000000	   9.2181700000	  55.6582000000
H	  20.9900000000	  10.8825000000	  54.4768000000
H	  22.2075000000	  10.2776000000	  53.3178000000
H	  20.3678000000	   8.9037900000	  55.2691000000
H	  20.9984000000	   8.4590100000	  53.6695000000
H	  24.2257000000	   9.1616200000	  55.0707000000
H	  23.5704000000	   9.1761900000	  56.7493000000
P	  21.6387000000	   4.3621200000	  55.8142000000
F	  19.7135000000	   7.1056300000	  58.7855336622
F	  19.7696000000	   6.8748700000	  56.6262000000
F	  19.5440000000	   5.1058900000	  57.9567000000
F	  19.8257000000	   2.8737300000	  54.1590000000
F	  18.5373000000	   4.5973100000	  54.5156000000
F	  18.6940000000	   3.7321200000	  52.4679000000
F	  22.4026000000	   1.7399300000	  54.4358000000
F	  24.2785000000	   0.9441093113	  55.1181000000
F	  22.8999000000	   1.7613900000	  56.6452000000
O	  22.2895000000	   5.5599800000	  56.6968000000
O	  20.9562000000	   5.4409900000	  54.6822000000
O	  23.0016000000	   4.2454600000	  54.9285000000
C	  21.6507000000	   6.1627400000	  57.8273000000
C	  20.4675000000	   4.9854300000	  53.4069000000
C	  23.9826000000	   3.2831700000	  55.2397000000
C	  20.1026000000	   6.2951400000	  57.7693000000
C	  19.2872000000	   3.9566000000	  53.6020000000
C	  23.3882000000	   1.9317300000	  55.3640000000
H	  21.8687000000	   5.5292000000	  58.7224636622
H	  22.0356000000	   7.1437000000	  57.9849000000
H	  20.2514000000	   5.9228000000	  52.7870000000
H	  21.2244000000	   4.4840500000	  52.9102000000
H	  24.7332000000	   3.3417800000	  54.4971000000
H	  24.4957000000	   3.4818600000	  56.2582000000
S	  25.0995000000	   6.4473800000	  56.0005000000
S	  25.0301000000	   6.6338600000	  53.8665000000
S	  23.2582000000	   6.9583400000	  52.8354000000
S	  23.5378000000	  10.1387000000	  48.5339000000
S	  21.7491000000	  11.1405000000	  48.3388000000
S	  20.4577000000	  10.2288000000	  46.9244000000
S	  23.7382000000	   9.3921600000	  50.5243000000
S	  23.6269000000	   7.3280800000	  50.7735000000
