45

Li	   1.7020200000	  18.3553000000	  45.8629000000
O	   0.3918469614	  17.5327000000	  44.7682000000
O	  -1.7135530386	  17.1182000000	  45.0498000000
C	  -0.0517530386	  17.4075000000	  43.4887000000
C	  -1.5535530386	  17.2449000000	  43.6656000000
C	  -0.4835530386	  16.7648000000	  45.4768000000
H	   0.2378469614	  18.3102000000	  42.9121000000
H	   0.4075469614	  16.5259000000	  43.0304000000
H	  -1.8885530386	  18.1937000000	  43.3324000000
H	  -2.0045530386	  16.4141000000	  43.1812000000
H	  -0.3268530386	  15.6975000000	  45.2779000000
H	  -0.4096530386	  16.7691000000	  46.5218000000
P	   1.4957400000	  20.8806000000	  46.2552000000
F	   3.0673400000	  22.0925000000	  48.7285000000
F	   4.0524000000	  20.6779000000	  50.1647000000
F	   4.8857500000	  20.9494000000	  48.2278000000
F	   4.0669800000	  21.7400000000	  45.1064000000
F	   4.3707200000	  21.1476000000	  42.9815000000
F	   2.6219300000	  22.2879000000	  43.4913000000
F	  -1.0488530386	  21.5433000000	  43.9094000000
F	  -2.6239530386	  22.0945000000	  45.2608000000
F	  -0.6016530386	  22.7558000000	  45.7326000000
O	   2.5277000000	  19.7841000000	  46.9268000000
O	   1.6783100000	  19.9310000000	  44.8925000000
O	   0.1422469614	  20.0366000000	  46.6472000000
C	   2.7905800000	  19.8132000000	  48.3584000000
C	   2.8002700000	  19.9677000000	  44.0218000000
C	  -1.1139530386	  20.5331000000	  46.1713000000
C	   3.7392300000	  20.9697000000	  48.8939000000
C	   3.4975600000	  21.3578000000	  43.8911000000
C	  -1.3263530386	  21.7312000000	  45.2266000000
H	   1.8587000000	  19.9376000000	  48.9054000000
H	   3.1619300000	  18.8009000000	  48.6028000000
H	   3.4409900000	  19.2454000000	  44.4611000000
H	   2.3911900000	  19.6404000000	  43.1524000000
H	  -1.5543530386	  19.7010000000	  45.5551000000
H	  -1.7212530386	  20.5976000000	  47.0499000000
S	   3.3106100000	  16.8172000000	  46.0131000000
S	   3.1747400000	  16.1993000000	  43.9624000000
S	   2.8337600000	  14.1809000000	  43.5524000000
S	   4.6546400000	   9.7975500000	  44.8599000000
S	   2.8653400000	   9.1346800000	  45.9022000000
S	   2.2639000000	   7.1375100000	  45.5016000000
S	   4.3781800000	  10.9690000000	  43.1204000000
S	   4.6257900000	  13.0254000000	  43.6085000000
