49

Li	  58.4290000000	  18.6552000000	  19.0117000000
P	  56.0997000000	  18.1274000000	  20.4193000000
F	  54.2458000000	  17.9845000000	  18.3407000000
F	  53.3260000000	  20.0250000000	  18.3981000000
F	  54.3861000000	  19.3056000000	  16.6396000000
F	  57.1884000000	  15.1189000000	  19.9494000000
F	  59.3320130386	  14.9750000000	  20.1767000000
F	  58.0338000000	  14.3105000000	  21.7823000000
F	  53.6962000000	  18.5878000000	  22.2174000000
F	  55.3717000000	  18.2526000000	  23.5128000000
F	  54.0391000000	  20.0193000000	  23.8827000000
O	  56.5826000000	  18.9353000000	  19.0545000000
O	  57.6778000000	  17.6186000000	  20.5340000000
O	  56.4661000000	  19.4097000000	  21.3382000000
C	  55.7498000000	  19.8514000000	  18.3731000000
C	  58.0726000000	  16.6296000000	  21.4215000000
C	  55.4671000000	  20.1007000000	  22.1025000000
C	  54.3737000000	  19.2762000000	  17.9527000000
C	  58.1573000000	  15.2201000000	  20.8410000000
C	  54.5671000000	  19.2117000000	  22.9308000000
H	  55.7005000000	  20.6733000000	  19.1293000000
H	  56.2984000000	  20.2594000000	  17.5428000000
H	  59.0903830386	  16.7602000000	  21.8588000000
H	  57.4409000000	  16.6071000000	  22.2984000000
H	  55.9974000000	  20.9041000000	  22.6343000000
H	  54.8764000000	  20.5236000000	  21.3748000000
N	  58.6940630386	  17.5199000000	  15.3765000000
S	  59.1097530386	  19.0349000000	  15.5095000000
O	  58.6380000000	  19.6464000000	  16.7079000000
O	  60.4116830386	  19.2437000000	  14.9614000000
C	  58.0896000000	  19.8863000000	  14.3387000000
F	  56.7971000000	  19.4531000000	  14.3641000000
F	  58.4134000000	  19.7650000000	  13.0321000000
F	  58.0898000000	  21.2097000000	  14.4402000000
S	  58.4352000000	  16.5404000000	  16.5323000000
O	  58.3002000000	  17.0931000000	  17.8684000000
O	  59.2639230386	  15.3476000000	  16.4177000000
C	  56.7840000000	  16.0667000000	  16.0623000000
F	  55.9249000000	  17.0133000000	  15.8213000000
F	  56.7267000000	  15.2202000000	  15.0315000000
F	  56.2394000000	  15.4678000000	  17.1061000000
S	  70.3786530386	  18.3578000000	  21.3009000000
S	  68.3344530386	  18.8847000000	  20.9513000000
S	  66.9760830386	  17.4219000000	  21.4745000000
S	  61.4427930386	  17.4073000000	  20.8881000000
S	  60.9479130386	  18.5699000000	  19.1206000000
S	  59.7584630386	  20.3326000000	  19.6715000000
S	  63.5190630386	  16.8304000000	  20.8744000000
S	  64.9440630386	  18.2237000000	  21.6676000000
