49

Li	   2.1386800000	   3.8665700000	   6.6368400000
P	   2.2519800000	   4.0598100000	   4.0821600000
F	   4.7524200000	   6.6451800000	   4.4949300000
F	   3.2000600000	   6.5630800000	   3.0162500000
F	   3.5687400000	   8.4028300000	   4.1073400000
F	   2.8876100000	   1.0001093113	   3.3789600000
F	   4.6044600000	   2.3216500000	   3.0466500000
F	   4.8326000000	   0.3924093113	   4.1119000000
F	   0.6367469614	   2.3708300000	   1.4284400000
F	  -1.1027530386	   3.6902400000	   1.3756900000
F	   0.8033469614	   4.5226700000	   1.6854000000
O	   2.5846900000	   5.0628600000	   5.3134100000
O	   2.6126700000	   2.9334500000	   5.2354400000
O	   0.6367469614	   4.1177900000	   4.1842000000
C	   2.5513800000	   6.4679000000	   5.2418500000
C	   3.7941000000	   2.1907600000	   5.1896900000
C	  -0.1809530386	   3.1731700000	   3.4865200000
C	   3.5310400000	   7.0394200000	   4.2264900000
C	   4.0279300000	   1.4678300000	   3.8909100000
C	   0.0563469614	   3.4274000000	   1.9945400000
H	   1.5977100000	   6.8151300000	   4.8210300000
H	   2.5822400000	   6.8415400000	   6.2596100000
H	   4.6948900000	   2.7328600000	   5.4898100000
H	   3.7074500000	   1.4388600000	   6.0094500000
H	  -0.0633530386	   2.0676900000	   3.7782300000
H	  -1.2161530386	   3.4585300000	   3.7178600000
N	  -1.5091530386	   4.2249100000	   7.6875800000
S	  -0.9528530386	   2.7405500000	   7.4991000000
O	  -1.8171530386	   1.8977800000	   6.6958000000
O	   0.4622469614	   2.6634000000	   7.3513200000
C	  -1.2781530386	   2.1727300000	   9.2233800000
F	  -1.3746530386	   0.8795093113	   9.3049600000
F	  -2.3344530386	   2.7646000000	   9.7335900000
F	  -0.2437530386	   2.4692600000	   9.9758200000
S	  -0.8571530386	   5.6354400000	   7.5225600000
O	   0.5391469614	   5.5189800000	   7.1702200000
O	  -1.3290530386	   6.5482900000	   8.5142600000
C	  -1.5879530386	   6.3156600000	   5.9832600000
F	  -2.8958530386	   6.2001700000	   5.9882400000
F	  -1.3511530386	   7.6248100000	   5.8893500000
F	  -1.1412530386	   5.7628400000	   4.8575900000
S	   3.4118500000	   3.6378000000	   8.3606800000
S	   4.8453100000	   5.0374500000	   7.5904600000
S	   5.5559000000	   6.3875000000	   8.9776900000
S	   4.5177200000	   9.7129300000	  12.0329000000
S	   4.7041800000	  11.5953000000	  12.9833000000
S	   6.2972600000	  11.9795000000	  14.2685000000
S	   5.3131000000	   9.6584200000	  10.0240000000
S	   4.5937900000	   8.1819400000	   8.8031500000
