42

Li	   7.1445200000	  42.9093000000	  50.5079000000
P	   9.2569000000	  42.5516000000	  48.9361000000
F	  13.2202000000	  44.8111000000	  48.9353000000
F	  12.3324000000	  42.9860000000	  49.9563000000
F	  12.1329000000	  43.2912000000	  47.8606000000
F	   9.6705300000	  39.6232000000	  52.3353000000
F	   8.7945300000	  39.8213000000	  50.3479000000
F	  10.9592000000	  39.8642000000	  50.6987000000
F	   6.6738700000	  42.8375000000	  45.2508000000
F	   8.7164400000	  43.4340000000	  45.7322000000
F	   7.9123700000	  41.5569000000	  46.4529000000
O	   9.6612000000	  44.1365000000	  48.7691000000
O	   8.8340100000	  42.3792000000	  50.4844000000
O	   7.5993400000	  42.9193000000	  48.7834000000
C	  10.9050000000	  44.6959000000	  49.2155000000
C	   9.6733500000	  41.6713000000	  51.4361000000
C	   7.1392800000	  43.4530000000	  47.5231000000
C	  12.2250000000	  43.9489000000	  49.0389000000
C	   9.7981200000	  40.1989000000	  51.1938000000
C	   7.6462200000	  42.8242000000	  46.1913000000
H	  10.9941000000	  45.5177000000	  48.5366000000
H	  10.7465000000	  44.9399000000	  50.3162000000
H	  10.6222000000	  42.1275000000	  51.4846000000
H	   9.0479200000	  41.7960000000	  52.3346000000
H	   6.0117400000	  43.4737000000	  47.4169000000
H	   7.3972500000	  44.4668000000	  47.6696000000
S	  10.9570000000	  48.2326000000	  58.7187836622
S	   9.4419300000	  46.9068000000	  58.2446000000
S	   7.6581700000	  47.8498000000	  57.7912000000
S	   6.2612300000	  45.1999000000	  54.4309000000
S	   6.8142300000	  44.7788000000	  52.5242000000
S	   5.3805900000	  44.2313000000	  51.0243000000
S	   6.0923500000	  47.3187000000	  54.8636000000
S	   7.7575700000	  48.2832000000	  55.7057000000
S	   5.9450000000	  41.1843000000	  50.8299000000
S	   5.8133700000	  40.9190000000	  52.8478000000
S	   6.8122600000	  39.2549000000	  53.6086000000
S	   4.7024700000	  34.5224000000	  52.1738000000
S	   3.2178100000	  34.8752000000	  50.6957000000
S	   1.6717700000	  33.4346000000	  50.5798000000
S	   6.0974500000	  36.1185000000	  52.2147000000
S	   5.7512400000	  37.4122000000	  53.8351000000
