56

Li	  18.8481000000	  33.4106000000	  41.7184000000
P	  18.0565000000	  32.3900000000	  39.4810000000
F	  14.0800000000	  34.4835000000	  39.2227000000
F	  15.8419000000	  34.3550000000	  37.9430000000
F	  14.9960000000	  32.5334000000	  38.8162000000
F	  19.1680000000	  31.8759000000	  36.6878000000
F	  18.4428000000	  33.9671000000	  36.7576000000
F	  20.2808000000	  33.4781000000	  35.9133000000
F	  16.6084000000	  30.0719000000	  40.0213000000
F	  18.4667000000	  28.9237000000	  40.2795000000
F	  16.8602000000	  28.7520000000	  41.6252000000
O	  17.1795000000	  33.3140000000	  40.5141000000
O	  19.3126000000	  33.4040000000	  39.3254000000
O	  18.7689000000	  31.7206000000	  40.8252000000
C	  16.1315000000	  34.2116000000	  40.2126000000
C	  20.2818000000	  33.3258000000	  38.2507000000
C	  18.1582000000	  30.7441000000	  41.6528000000
C	  15.2261000000	  33.8368000000	  39.0439000000
C	  19.5006000000	  33.1789000000	  36.8944000000
C	  17.5197000000	  29.5941000000	  40.9081000000
H	  15.4837000000	  34.4032000000	  41.1086000000
H	  16.6518000000	  35.1518000000	  40.0728000000
H	  20.8733000000	  34.2859000000	  38.1263000000
H	  21.0643000000	  32.6259000000	  38.3816000000
H	  18.8541000000	  30.3782000000	  42.4470000000
H	  17.4040000000	  31.3612000000	  42.1413000000
N	  15.0951000000	  32.0620000000	  42.8389000000
S	  15.9607000000	  32.9172000000	  43.8098000000
O	  17.2460000000	  33.3539000000	  43.2264000000
O	  15.1963000000	  33.8167000000	  44.5427000000
C	  16.4268000000	  31.6008000000	  44.9886000000
F	  17.2844000000	  30.6490000000	  44.5988000000
F	  15.3384000000	  30.9917000000	  45.3235000000
F	  16.9380000000	  32.0441000000	  46.1568000000
S	  13.4845000000	  32.0879000000	  42.6691000000
O	  13.0926000000	  32.9084000000	  41.5319000000
O	  12.7491000000	  32.3628000000	  43.8777000000
C	  12.9763000000	  30.3470000000	  42.1224000000
F	  13.4559000000	  29.4326000000	  42.9980000000
F	  11.6289000000	  30.2374000000	  42.1102000000
F	  13.4177000000	  30.0529000000	  40.8879000000
N	  22.1090000000	  34.3469000000	  42.7965000000
S	  21.6916000000	  33.0149000000	  43.4296000000
O	  20.3548000000	  32.5611000000	  43.1601000000
O	  22.6804000000	  32.0364000000	  43.2066000000
C	  21.6689000000	  33.5376000000	  45.2264000000
F	  20.5782000000	  34.2467000000	  45.4923000000
F	  22.5910000000	  34.4441000000	  45.4757000000
F	  21.6762000000	  32.5826000000	  46.1058000000
S	  21.1401000000	  35.3013000000	  41.9501000000
O	  19.8046000000	  35.3023000000	  42.5055000000
O	  21.3278000000	  35.2481000000	  40.5188000000
C	  21.9490000000	  36.9526000000	  42.3811000000
F	  21.3123000000	  37.9208000000	  41.8124000000
F	  21.8547000000	  37.2211000000	  43.7172000000
F	  23.2194000000	  37.0509000000	  42.0399000000
