60

Li	  57.1961000000	   2.4853200000	  18.1713000000
O	  55.2160000000	   2.2555300000	  18.2406000000
O	  53.4810000000	   0.8655093113	  18.5786000000
C	  54.1626000000	   2.7897600000	  17.4705000000
C	  53.4317000000	   1.5158200000	  17.3249000000
C	  54.6083000000	   1.4285200000	  19.1280000000
H	  53.6289000000	   3.5222100000	  18.0861000000
H	  54.4790000000	   3.1865200000	  16.5130000000
H	  52.3419000000	   1.5552000000	  17.1435000000
H	  53.8654000000	   0.9137093113	  16.5689000000
H	  55.2065000000	   0.6126093113	  19.5202000000
H	  54.1078000000	   1.9186900000	  19.9660000000
P	  58.3511000000	   2.4424800000	  20.4854000000
F	  59.6573230386	   0.0840093113	  21.5581000000
F	  58.8326930386	   1.0488093113	  23.2897000000
F	  58.6158000000	  -1.0208906887	  23.0968000000
F	  59.7116830386	   4.5344500000	  18.6295000000
F	  60.9882030386	   3.5431000000	  20.0623000000
F	  61.5011530386	   3.8386300000	  18.0041000000
F	  56.1193000000	   6.0063900000	  22.1281000000
F	  57.2005000000	   4.0829200000	  22.6839000000
F	  58.2691000000	   5.5895000000	  21.4489000000
O	  57.0247000000	   1.5013700000	  21.0439000000
O	  58.6720730386	   1.7233100000	  19.0417000000
O	  57.4199000000	   3.6354000000	  19.6904000000
C	  57.2220000000	   0.2005093113	  21.6634000000
C	  59.9497530386	   2.1085500000	  18.3212000000
C	  56.4847000000	   4.4571600000	  20.4926000000
C	  58.6090000000	   0.0860093113	  22.3791000000
C	  60.5000230386	   3.5101800000	  18.7850000000
C	  57.0308000000	   5.0633700000	  21.7473000000
H	  56.4079000000	   0.2403093113	  22.4456000000
H	  57.0219000000	  -0.6804906887	  21.0522000000
H	  60.7869830386	   1.4194900000	  18.5699000000
H	  59.9079230386	   2.0152700000	  17.1776000000
H	  55.9134000000	   5.0607000000	  19.8794000000
H	  55.7813000000	   3.7425500000	  20.8966000000
N	  56.4065000000	  -2.2759906887	  17.1055000000
S	  57.4551000000	  -1.2481906887	  17.6186000000
O	  57.0011000000	   0.1089093113	  17.3707000000
O	  58.1999000000	  -1.4260906887	  18.8116000000
C	  58.7107030386	  -1.3805906887	  16.3265000000
F	  59.7588930386	  -0.6248906887	  16.6746000000
F	  58.3490000000	  -0.8978906887	  15.1463000000
F	  59.2118330386	  -2.6051906887	  16.2130000000
S	  56.1730000000	  -3.7027906887	  17.8461000000
O	  56.6188000000	  -3.7679906887	  19.1825000000
O	  56.4878000000	  -4.8386906887	  17.0177000000
C	  54.2930000000	  -3.7007906887	  18.0847000000
F	  53.7665000000	  -4.4558906887	  17.1470000000
F	  53.8749000000	  -4.1753906887	  19.2753000000
F	  53.6676000000	  -2.5759906887	  17.9622000000
S	  57.7869000000	   3.2270100000	  15.9821000000
S	  58.7948230386	   5.0709500000	  15.5842000000
S	  57.4805000000	   6.7129300000	  15.8655000000
S	  59.9723230386	   8.7481100000	  11.9431000000
S	  61.6024330386	   7.6237700000	  12.6865000000
S	  63.3918930386	   8.7088800000	  12.8062000000
S	  58.5942000000	   9.1202300000	  13.5290000000
S	  57.1570000000	   7.5698700000	  13.9499000000
