34

Li	   9.5477900000	  48.4426000000	  55.1592000000
P	  11.3872000000	  50.8047000000	  54.7856000000
F	  15.9010000000	  50.6481000000	  55.0489000000
F	  14.4023000000	  50.7769000000	  53.4790000000
F	  14.3190000000	  52.0922000000	  55.2862000000
F	   9.8207800000	  50.7635000000	  50.6083000000
F	  10.3088000000	  51.8010000000	  52.4828000000
F	  11.8776000000	  50.6905000000	  51.5535000000
F	  10.7979000000	  52.8041000000	  56.8719000000
F	   9.2604800000	  53.4019000000	  55.3284000000
F	   8.7416600000	  53.2185000000	  57.3784000000
O	  12.4144000000	  50.0340000000	  55.8903000000
O	  11.1306000000	  49.4481000000	  53.8264000000
O	   9.9137600000	  50.3706000000	  55.4243000000
C	  13.8335000000	  49.8034000000	  55.6469000000
C	  10.2402000000	  49.5102000000	  52.6853000000
C	   9.1584000000	  51.2504000000	  56.2947000000
C	  14.6033000000	  50.8339000000	  54.8323000000
C	  10.5757000000	  50.6659000000	  51.7963000000
C	   9.5285100000	  52.7358000000	  56.4589000000
H	  14.2775000000	  49.7562000000	  56.6613000000
H	  13.9873000000	  48.7991000000	  55.3213000000
H	  10.3912000000	  48.5574000000	  52.0902000000
H	   9.2246400000	  49.5574000000	  53.0636000000
H	   8.1027100000	  51.1923000000	  55.8960000000
H	   9.0995300000	  50.8470000000	  57.2963000000
S	   8.2836900000	  48.1331000000	  56.8845000000
S	   6.1504900000	  48.6921000000	  56.7753000000
S	   4.9934300000	  47.2183000000	  55.7987000000
S	   7.7679700000	  47.2466000000	  52.3133000000
S	   9.1067800000	  45.7633000000	  52.9162000000
S	   9.9555500000	  46.3869000000	  54.7631000000
S	   5.7182700000	  46.7284000000	  52.5597000000
S	   4.6348500000	  47.8440000000	  53.9638000000
