62

Li	  25.8029000000	  12.0907000000	  35.3508000000
O	  25.9433000000	  10.1707000000	  35.1636000000
O	  24.8137000000	   8.1902500000	  35.0458000000
C	  26.6053000000	   9.3770500000	  34.2101000000
C	  25.5190000000	   8.4245400000	  33.7991000000
C	  24.9684000000	   9.3937300000	  35.7428000000
H	  27.0032000000	   9.9361600000	  33.3649000000
H	  27.3391000000	   8.7307900000	  34.6619000000
H	  24.8941000000	   8.7932100000	  33.0531000000
H	  25.8760000000	   7.4973500000	  33.3397000000
H	  25.1871000000	   9.1284500000	  36.7741000000
H	  23.9653000000	   9.8754100000	  35.5419000000
P	  28.4634000000	  12.6680000000	  36.0714000000
F	  30.9420000000	  14.1502000000	  36.8674000000
F	  30.7369000000	  15.9002000000	  38.2168000000
F	  29.8300000000	  14.0308000000	  38.7432000000
F	  28.1521000000	  10.0434000000	  39.6964000000
F	  28.4632000000	   9.7223200000	  37.5357000000
F	  29.3131000000	  11.5114000000	  38.5574000000
F	  29.8920000000	  12.2204000000	  33.1048000000
F	  29.5476000000	  14.1161000000	  32.1255000000
F	  30.1980000000	  14.1101000000	  34.1036000000
O	  27.9454000000	  14.1570000000	  36.6954000000
O	  27.1722000000	  11.9080000000	  36.7974000000
O	  27.5696000000	  12.6017000000	  34.6730000000
C	  28.8092000000	  15.2392000000	  37.0353000000
C	  27.1197000000	  11.5897000000	  38.1771000000
C	  27.8762000000	  13.3777000000	  33.5502000000
C	  30.1425000000	  14.7993000000	  37.6858000000
C	  28.2560000000	  10.6491000000	  38.4823000000
C	  29.4372000000	  13.4288000000	  33.2354000000
H	  29.0289000000	  15.6943000000	  36.1007000000
H	  28.4878000000	  15.9460000000	  37.7586000000
H	  27.1704000000	  12.5486000000	  38.7745000000
H	  26.1595000000	  11.1549000000	  38.4152000000
H	  27.2632000000	  12.9540000000	  32.7293000000
H	  27.4588000000	  14.3609000000	  33.6461000000
P	  23.6914000000	  13.3942000000	  34.5806000000
F	  23.6053000000	  16.1519000000	  34.2047000000
F	  25.5169000000	  17.1877000000	  34.0194000000
F	  25.1674000000	  15.2723000000	  33.0004000000
F	  23.4759000000	  13.6280000000	  31.4832000000
F	  23.2035000000	  11.7938000000	  30.4514000000
F	  22.0240000000	  12.1665000000	  32.2632000000
F	  21.1644000000	  13.6412000000	  36.1058000000
F	  21.2155000000	  13.5121000000	  38.2035000000
F	  22.6457000000	  14.7307000000	  37.0727000000
O	  25.0153000000	  13.9809000000	  35.3812000000
O	  24.8323000000	  12.5547000000	  33.5947000000
O	  23.5649000000	  12.2407000000	  35.7762000000
C	  25.2944000000	  15.3497000000	  35.5585000000
C	  24.2943000000	  11.6768000000	  32.5899000000
C	  22.8798000000	  12.3726000000	  37.0089000000
C	  24.9314000000	  15.9730000000	  34.1746000000
C	  23.1983000000	  12.3286000000	  31.6600000000
C	  21.9658000000	  13.6043000000	  37.1248000000
H	  24.6200000000	  15.7064000000	  36.3480000000
H	  26.2886000000	  15.5235000000	  35.9990000000
H	  25.1333000000	  11.6074000000	  31.9349000000
H	  23.9362000000	  10.6831000000	  33.0132000000
H	  22.1328000000	  11.4965000000	  37.0542000000
H	  23.6022000000	  12.3474000000	  37.7789000000
