28

Li	  56.3470000000	  23.9814000000	  56.5005000000
O	  55.0215000000	  23.1926000000	  55.5590000000
O	  53.7433000000	  21.5230000000	  54.7241000000
C	  53.8124000000	  23.6986000000	  54.9702000000
C	  52.8592000000	  22.5458000000	  55.0462000000
C	  54.9141000000	  21.7970000000	  55.4296000000
H	  53.3913000000	  24.4882000000	  55.6043000000
H	  53.9339000000	  24.1074000000	  53.9708000000
H	  52.4378000000	  22.3636000000	  55.9920000000
H	  52.0235000000	  22.6224000000	  54.3330000000
H	  55.7588000000	  21.3633000000	  55.0252000000
H	  54.6917000000	  21.3271000000	  56.4165000000
S	  65.1056130386	  30.6181000000	  56.3552000000
S	  64.1274730386	  28.7175000000	  56.7759000000
S	  62.9639030386	  28.9042000000	  58.4313000000
S	  57.9131000000	  27.5504000000	  58.8061236622
S	  56.4696000000	  26.6727000000	  57.5958000000
S	  55.8240000000	  24.7918000000	  58.3055000000
S	  59.7392030386	  27.5118000000	  57.8291000000
S	  60.8913330386	  29.2200000000	  57.9937000000
S	  58.4617000000	  23.4528000000	  57.1555000000
S	  58.2502000000	  23.6417000000	  54.9887000000
S	  57.3659000000	  25.5087000000	  54.4211000000
S	  57.0993000000	  30.0137000000	  53.2270000000
S	  57.0368000000	  32.0355000000	  53.8187000000
S	  58.4867000000	  33.1747000000	  52.8114000000
S	  58.3437000000	  28.9339000000	  54.5735000000
S	  58.7054030386	  26.9971000000	  53.8959000000
