52

Li	  31.2165000000	  22.5417000000	  50.6692000000
O	  30.4149000000	  23.8546000000	  51.9016000000
O	  29.2070000000	  24.5576000000	  53.5430000000
C	  30.1213000000	  25.1570000000	  51.5516000000
C	  29.3424000000	  25.7532000000	  52.8037000000
C	  30.3074000000	  23.7680000000	  53.2459000000
H	  31.1341000000	  25.6027000000	  51.3478000000
H	  29.6101000000	  25.2132000000	  50.6376000000
H	  29.8294000000	  26.5389000000	  53.4266000000
H	  28.3143000000	  26.0458000000	  52.5966000000
H	  30.0941000000	  22.7885000000	  53.5026000000
H	  31.2359000000	  24.1630000000	  53.8249000000
P	  30.4292000000	  20.7924000000	  48.6440000000
F	  27.4017000000	  23.7714000000	  47.3464000000
F	  29.4184000000	  24.0190000000	  48.0503000000
F	  28.9325000000	  22.4487000000	  46.7403000000
F	  33.5510000000	  21.5509000000	  45.4948000000
F	  32.4627000000	  19.8946000000	  46.1593000000
F	  31.3660000000	  21.6419000000	  45.4558000000
F	  29.0342000000	  18.8655000000	  50.3452000000
F	  30.7095000000	  17.9576000000	  49.1887000000
F	  30.3902000000	  17.3161000000	  51.1759000000
O	  29.4817000000	  21.7826000000	  49.5794000000
O	  31.4063000000	  22.0905000000	  48.3100000000
O	  31.4260000000	  20.5429000000	  49.9561000000
C	  28.2505000000	  22.2563000000	  49.0116000000
C	  32.5906000000	  21.8363000000	  47.5373000000
C	  31.1946000000	  19.4826000000	  50.9663000000
C	  28.5015000000	  23.1113000000	  47.7249000000
C	  32.4638000000	  21.2418000000	  46.1253000000
C	  30.3218000000	  18.3649000000	  50.4241000000
H	  27.6795000000	  21.3351000000	  48.7400000000
H	  27.6414000000	  22.8057000000	  49.7046000000
H	  33.1678000000	  22.7232000000	  47.5165000000
H	  33.0742000000	  21.0632000000	  48.1526000000
H	  32.1768000000	  19.2408000000	  51.3168000000
H	  30.7427000000	  19.9952000000	  51.7890000000
N	  34.7937000000	  22.6450000000	  51.5512000000
S	  33.9715000000	  21.6804000000	  52.4481000000
O	  32.5489000000	  21.9354000000	  52.3423000000
O	  34.3954000000	  20.2813000000	  52.4507000000
C	  34.4956000000	  22.1882000000	  54.1362000000
F	  35.8357000000	  22.0922000000	  54.3230000000
F	  33.8734000000	  21.3654000000	  55.0103000000
F	  34.1404000000	  23.4427000000	  54.3490000000
S	  34.3204000000	  23.7149000000	  50.3994000000
O	  32.8604000000	  23.8474000000	  50.2840000000
O	  35.2302000000	  23.8829000000	  49.2641000000
C	  34.7402000000	  25.2766000000	  51.2457000000
F	  34.3478000000	  26.2689000000	  50.4887000000
F	  34.0413000000	  25.2560000000	  52.3760000000
F	  36.0178000000	  25.3776000000	  51.5988000000
