52

Li	   3.4684400000	   2.8107300000	  55.5800000000
O	   4.0322300000	  -0.0784906887	  53.4937000000
O	   3.3174500000	   1.9303900000	  53.9176000000
C	   4.8221200000	   0.6743093113	  52.6249000000
C	   4.3044400000	   2.1250100000	  52.9639000000
C	   2.9068900000	   0.7025093113	  53.6753000000
H	   5.9044400000	   0.6012093113	  52.7596000000
H	   4.5406000000	   0.5305093113	  51.5670000000
H	   5.0859000000	   2.7647200000	  53.4429000000
H	   3.7983600000	   2.6235500000	  52.1388000000
H	   2.2017500000	   0.4605093113	  52.8522000000
H	   2.3988300000	   0.3827093113	  54.5993000000
P	   5.3873100000	   1.9948700000	  57.1989000000
F	   3.0631500000	  -0.8970906887	  59.6165636622
F	   4.8617200000	  -0.9813906887	  58.4663000000
F	   4.3165000000	   0.7585093113	  59.6726736622
F	   7.5387700000	   0.3697093113	  58.5138000000
F	   8.5075200000	  -1.1310906887	  57.3329000000
F	   9.4913600000	   0.6331093113	  57.8326000000
F	   7.6616600000	   3.7819500000	  57.9233000000
F	   8.0073000000	   5.6881400000	  56.8760000000
F	   6.1002200000	   5.2892100000	  58.0889000000
O	   3.7602700000	   1.5629400000	  56.9105000000
O	   6.2568300000	   0.8271093113	  56.2785000000
O	   5.1619000000	   3.2483800000	  56.1717000000
C	   3.1033700000	   0.5000093113	  57.6932000000
C	   7.6512100000	   0.7116093113	  56.2293000000
C	   6.2826000000	   4.1993100000	  55.9736000000
C	   3.8634400000	  -0.1805906887	  58.8324336622
C	   8.2726700000	   0.1068093113	  57.4503000000
C	   7.0279800000	   4.8274700000	  57.2839000000
H	   2.1834700000	   0.9056093113	  58.1317000000
H	   2.7095300000	  -0.1978906887	  57.0260000000
H	   7.9412100000	   0.1611093113	  55.3049000000
H	   8.0101900000	   1.7690700000	  56.1500000000
H	   7.0982600000	   3.8812300000	  55.2951000000
H	   5.7956000000	   4.9779800000	  55.4122000000
N	   1.3558000000	   4.5222300000	  53.3850000000
S	  -0.2586530386	   4.5770700000	  53.3353000000
O	  -0.8510530386	   4.2029300000	  54.5601000000
O	  -0.8001530386	   5.7272200000	  52.5394000000
C	  -0.5322530386	   3.1345400000	  52.2932000000
F	   0.0208469614	   3.3861100000	  51.1066000000
F	  -1.8347530386	   2.9691800000	  52.1464000000
F	  -0.1170530386	   1.9510800000	  52.8151000000
S	   2.2666800000	   5.4497600000	  54.1858000000
O	   3.1179700000	   4.7582500000	  55.0546000000
O	   1.6849500000	   6.7010700000	  54.7182000000
C	   3.3091100000	   6.0243900000	  52.8346000000
F	   2.4876400000	   6.5798700000	  51.9665000000
F	   4.2605200000	   6.9365500000	  53.1275000000
F	   3.7840500000	   4.8425900000	  52.2869000000
