28

Li	   2.1132300000	  35.2990000000	  51.2855000000
O	   2.3913700000	  32.4905000000	  54.2824000000
O	   2.9620100000	  33.9345000000	  52.6136000000
C	   3.7812800000	  32.7147000000	  54.3349000000
C	   3.9285400000	  34.0551000000	  53.6700000000
C	   2.0427700000	  32.9566000000	  53.0411000000
H	   4.0000100000	  32.6721000000	  55.3994000000
H	   4.3671200000	  31.9218000000	  53.8187000000
H	   3.7063200000	  34.8724000000	  54.3153000000
H	   4.8979700000	  34.2451000000	  53.2589000000
H	   2.0996300000	  32.0692000000	  52.4276000000
H	   1.0132469614	  33.3038000000	  52.9595000000
S	  -4.8447530386	  27.3746000000	  56.0304000000
S	  -3.1428530386	  28.2974000000	  55.1654000000
S	  -3.4686530386	  30.0731000000	  54.0654000000
S	  -0.9901530386	  31.8447000000	  50.8186000000
S	   0.5652469614	  32.8922000000	  49.8619000000
S	   0.5291469614	  34.8966000000	  50.1484000000
S	  -0.5098530386	  30.7183000000	  52.4912000000
S	  -1.7556530386	  31.3088000000	  54.0255000000
S	   9.9780300000	  40.6571000000	  53.8014000000
S	   8.3552500000	  39.3341000000	  53.4528000000
S	   8.8112400000	  37.9738000000	  51.8405000000
S	   4.6162100000	  38.4682000000	  50.0212000000
S	   2.6635700000	  37.6086000000	  50.4361000000
S	   2.3923300000	  37.0561000000	  52.4799000000
S	   6.1188800000	  37.0303000000	  49.6648000000
S	   7.0864200000	  36.7746000000	  51.6448000000
