52

Li	  58.6344000000	  57.4070000000	  15.5732000000
O	  58.3239000000	  56.4384000000	  13.3134000000
O	  57.0497000000	  57.5852000000	  14.6464000000
C	  58.3827000000	  57.7786000000	  12.8681000000
C	  57.2348000000	  58.5415000000	  13.5993000000
C	  57.1873000000	  56.3531000000	  14.0756000000
H	  59.3225430386	  58.1817000000	  13.2255000000
H	  58.3939000000	  57.9909000000	  11.8292000000
H	  57.3965000000	  59.6345106887	  13.7822000000
H	  56.3810000000	  58.4490000000	  12.9157000000
H	  56.3344000000	  56.1266000000	  13.4507000000
H	  57.1629000000	  55.4815000000	  14.7579000000
P	  59.0082030386	  55.5439000000	  17.5056000000
F	  61.9484530386	  55.2721000000	  17.7149000000
F	  61.0312730386	  53.5060000000	  17.1508000000
F	  62.6886130386	  54.2368000000	  15.9173000000
F	  58.0204000000	  57.2975000000	  19.6645000000
F	  55.8763000000	  57.3358000000	  20.0325000000
F	  56.9156000000	  55.4447000000	  19.7026000000
F	  58.8970130386	  53.3553000000	  19.2521000000
F	  57.1987000000	  52.1044000000	  19.2088000000
F	  58.8798630386	  51.7644000000	  17.8892000000
O	  59.7470130386	  56.0610000000	  16.0947000000
O	  57.9329000000	  56.7420000000	  17.1535000000
O	  58.3467000000	  54.2926000000	  16.6329000000
C	  60.8296830386	  55.3707000000	  15.5914000000
C	  56.6815000000	  57.0029000000	  17.8465000000
C	  57.4411000000	  53.4012000000	  17.2301000000
C	  61.6218730386	  54.5564000000	  16.6577000000
C	  56.8646000000	  56.7267000000	  19.3559000000
C	  58.1521000000	  52.6620000000	  18.4391000000
H	  60.4307030386	  54.6568000000	  14.8298000000
H	  61.4029530386	  56.0622000000	  15.0377000000
H	  56.3022000000	  58.0117000000	  17.6644000000
H	  55.9559000000	  56.4236000000	  17.3703000000
H	  56.4426000000	  53.8443000000	  17.3848000000
H	  57.2765000000	  52.6932000000	  16.4353000000
N	  60.9692730386	  60.7956606887	  15.1919000000
S	  61.0565030386	  62.1250606887	  14.3879000000
O	  59.8317930386	  62.8831006887	  14.3788000000
O	  62.3083930386	  62.8551906887	  14.5135000000
C	  61.1866630386	  61.4996706887	  12.7079000000
F	  61.4669530386	  62.4481906887	  11.8462000000
F	  60.0335630386	  61.0425006887	  12.3186000000
F	  62.0167130386	  60.5019606887	  12.5907000000
S	  59.8994930386	  60.3506806887	  16.2353000000
O	  59.3895330386	  59.0202506887	  15.9080000000
O	  59.0223230386	  61.3949106887	  16.6917000000
C	  60.9967430386	  59.9941506887	  17.7072000000
F	  61.9290530386	  60.9550406887	  17.9335000000
F	  60.4799030386	  59.6025106887	  18.8306000000
F	  61.8070930386	  59.0501506887	  17.2988000000
