24

Li	  49.2348000000	  22.2675000000	   2.4008700000
N	  47.5267000000	  22.3784000000	  -0.6707736622
S	  47.4563000000	  23.6977000000	   0.1288263378
O	  46.1664000000	  24.3686000000	   0.0716263378
O	  48.1441000000	  23.6686000000	   1.4016700000
C	  48.5411000000	  24.7081000000	  -0.8685736622
F	  49.7621000000	  24.1735000000	  -1.0966736622
F	  48.8480000000	  25.8890000000	  -0.3172736622
F	  47.9958000000	  24.9110000000	  -2.0429736622
S	  48.1075000000	  20.9909000000	  -0.3431736622
O	  47.1318000000	  19.9436000000	  -0.4843736622
O	  48.8377000000	  21.0577000000	   0.9055263378
C	  49.3013000000	  20.6489000000	  -1.7414736622
F	  49.6725000000	  19.3638000000	  -1.6711736622
F	  48.6987000000	  20.7368000000	  -2.9197736622
F	  50.4171000000	  21.3693000000	  -1.7830736622
S	  48.4644000000	  21.7815000000	   4.2791900000
S	  47.2198000000	  20.2980000000	   3.4124100000
S	  48.1663000000	  18.5055000000	   3.9078600000
S	  52.3087000000	  19.6445000000	   1.8143000000
S	  52.6768000000	  21.5009000000	   2.7157400000
S	  51.2675000000	  23.0474000000	   2.2027600000
S	  51.4056000000	  18.0310000000	   2.9372800000
S	  49.4586000000	  17.8577000000	   2.3830800000
