67

Li	   8.3497800000	  42.1959000000	  40.3668000000
O	   7.5129300000	  41.5173000000	  38.8159000000
O	   7.2836800000	  41.3201000000	  36.5221000000
C	   6.2174500000	  41.9058000000	  38.4821000000
C	   5.9973200000	  41.3600000000	  37.0942000000
C	   8.1927300000	  41.4869000000	  37.5733000000
H	   5.4985600000	  41.4624000000	  39.1266000000
H	   6.1234700000	  43.0246000000	  38.4521000000
H	   5.7281900000	  40.3613000000	  37.2751000000
H	   5.1770600000	  41.8398000000	  36.5821000000
H	   8.6642300000	  42.4933000000	  37.3438000000
H	   8.8956900000	  40.7165000000	  37.5442000000
P	   7.7791300000	  40.9506000000	  42.5207000000
F	   9.6995200000	  38.2504000000	  42.3894000000
F	   7.5216500000	  37.8509000000	  42.3819000000
F	   8.7695400000	  36.8941000000	  40.9045000000
F	   8.4884500000	  42.8332000000	  45.0600000000
F	   8.7072400000	  44.9360000000	  44.5752000000
F	   7.0344500000	  43.8603000000	  43.8210000000
F	   6.1633400000	  41.3438000000	  45.0907000000
F	   4.1064900000	  40.7371000000	  44.8340000000
F	   5.7351400000	  39.4097000000	  44.2034000000
O	   8.4309000000	  40.3760000000	  41.1237000000
O	   8.2256500000	  42.5090000000	  42.0528000000
O	   6.1937800000	  40.8905000000	  42.0531000000
C	   8.4781600000	  39.1017000000	  40.6174000000
C	   9.0900500000	  43.3120000000	  42.8490000000
C	   5.1850600000	  41.2178000000	  42.9298000000
C	   8.6172200000	  38.0219000000	  41.6251000000
C	   8.2858400000	  43.7422000000	  44.1272000000
C	   5.3256000000	  40.6792000000	  44.3202000000
H	   7.5107500000	  39.0438000000	  40.0915000000
H	   9.3992100000	  39.0712000000	  40.0079000000
H	   9.9763300000	  42.7036000000	  43.0281000000
H	   9.4907500000	  44.1282000000	  42.2129000000
H	   5.0653100000	  42.2963000000	  43.0085000000
H	   4.2622000000	  40.7747000000	  42.4987000000
N	  12.1394000000	  41.4747000000	  37.9116000000
S	  12.4606000000	  42.1635000000	  36.5216000000
O	  11.7793000000	  41.5226000000	  35.3912000000
O	  12.6345000000	  43.5729000000	  36.5451000000
C	  14.2207000000	  41.6328000000	  36.3012000000
F	  14.8080000000	  42.1350000000	  35.2461000000
F	  14.2530000000	  40.3393000000	  36.2272000000
F	  15.0236000000	  41.9788000000	  37.2887000000
S	  11.8380000000	  42.2727000000	  39.2255000000
O	  10.4005000000	  42.2878000000	  39.5859000000
O	  12.6642000000	  43.4286000000	  39.3088000000
C	  12.6717000000	  41.1754000000	  40.4094000000
F	  12.3887000000	  41.5574000000	  41.6690000000
F	  12.1650000000	  39.9547000000	  40.2970000000
F	  13.9943000000	  41.1509000000	  40.2637000000
N	   9.2215300000	  46.2084000000	  39.1464000000
S	  10.2650000000	  45.8849000000	  38.0251000000
O	  11.5925000000	  45.9247000000	  38.6006000000
O	   9.9408600000	  44.8342000000	  37.0691000000
C	  10.1852000000	  47.3787000000	  36.9189000000
F	  11.0557000000	  47.3076000000	  35.8817000000
F	  10.3896000000	  48.4269000000	  37.6533000000
F	   8.9585500000	  47.6116000000	  36.4403000000
S	   7.8915800000	  45.4430000000	  39.4131000000
O	   8.1777000000	  44.1633000000	  39.9439000000
O	   6.8886100000	  45.4475000000	  38.3929000000
C	   7.0861900000	  46.2441000000	  40.8076000000
F	   7.8567200000	  46.2175000000	  41.9186000000
F	   6.8839200000	  47.5607000000	  40.6162000000
F	   5.8746900000	  45.7045000000	  41.0854000000
