81

Li	  45.1813000000	   3.8361100000	  36.5692000000
P	  45.6203000000	   6.8643400000	  38.5842000000
F	  43.1059000000	   7.6305000000	  34.8979000000
F	  43.5407000000	   8.8628300000	  36.6846000000
F	  45.0820000000	   7.7469200000	  35.7419000000
F	  44.7936000000	   5.2725200000	  42.7373000000
F	  45.3968000000	   7.0583300000	  41.7080000000
F	  43.7221000000	   5.8259600000	  40.9868000000
F	  48.0867000000	   8.1538400000	  40.3525000000
F	  49.1973000000	   9.5038300000	  39.0833000000
F	  46.9742000000	   9.4887300000	  38.9773000000
O	  44.6746000000	   5.9354500000	  37.4828000000
O	  46.3284000000	   5.6122300000	  39.4357000000
O	  46.9573000000	   7.2075500000	  37.5257000000
C	  43.5404000000	   6.5682000000	  36.9610000000
C	  45.7567000000	   4.9210900000	  40.5441000000
C	  48.1792000000	   7.7311200000	  37.9613000000
C	  43.8198000000	   7.7310000000	  36.0373000000
C	  44.9197000000	   5.8210300000	  41.5278000000
C	  48.0925000000	   8.7639900000	  39.1329000000
H	  42.8183000000	   5.9351300000	  36.4756000000
H	  42.9428000000	   6.9942000000	  37.6845000000
H	  45.2673000000	   4.0367800000	  40.1082000000
H	  46.6039000000	   4.3834400000	  41.0711000000
H	  48.8184000000	   6.8693900000	  38.1240000000
H	  48.5194000000	   8.3328300000	  37.1324000000
P	  45.7893000000	   3.2518600000	  33.9245000000
F	  48.6278000000	   3.1203700000	  34.3367000000
F	  49.6788000000	   5.0038000000	  34.5724000000
F	  49.0810000000	   3.9101000000	  36.2952000000
F	  45.4939000000	   0.3027093113	  33.6479000000
F	  43.3567000000	  -0.5101906887	  33.4650000000
F	  43.9970000000	   1.2204093113	  32.3690000000
F	  44.4456000000	   3.9309000000	  30.8760000000
F	  44.4384000000	   6.0973100000	  30.7741000000
F	  46.1528000000	   5.0918300000	  31.6087000000
O	  46.3590000000	   4.1953100000	  35.1493000000
O	  44.9017000000	   2.4172400000	  35.1107000000
O	  44.3495000000	   3.9514000000	  33.5412000000
C	  47.4646000000	   5.0283200000	  35.0046000000
C	  43.8695000000	   1.4582300000	  34.7278000000
C	  44.1948000000	   5.1521500000	  32.8062000000
C	  48.7665000000	   4.2405900000	  35.0452000000
C	  44.1704000000	   0.5825093113	  33.4958000000
C	  44.7955000000	   5.0417900000	  31.4744000000
H	  47.3862000000	   5.4808800000	  33.9835000000
H	  47.5229000000	   5.8304100000	  35.8235000000
H	  43.8070000000	   0.7453093113	  35.5663000000
H	  42.8617000000	   1.8524500000	  34.7715000000
H	  43.1155000000	   5.2799600000	  32.8358000000
H	  44.7518000000	   6.0002100000	  33.3670000000
N	  47.1193000000	   1.3044093113	  39.3749000000
S	  46.4739000000	   1.4973700000	  37.9497000000
O	  45.3714000000	   0.6345093113	  37.6269000000
O	  46.3724000000	   2.8462200000	  37.5163000000
C	  47.7772000000	   0.7364093113	  36.9169000000
F	  47.5724000000	   0.9429093113	  35.6310000000
F	  47.7481000000	  -0.5784906887	  37.0548000000
F	  49.0393000000	   1.1270093113	  37.1718000000
S	  46.3939000000	   0.7364093113	  40.6174000000
O	  45.1332000000	   0.0242093113	  40.4404000000
O	  46.5182000000	   1.6208800000	  41.7426000000
C	  47.5673000000	  -0.6034906887	  41.0514000000
F	  48.7811000000	  -0.1445906887	  41.3148000000
F	  47.1749000000	  -1.1626906887	  42.2592000000
F	  47.7248000000	  -1.5682906887	  40.1275000000
N	  42.1518000000	   3.3344900000	  39.7822000000
S	  42.5176000000	   2.6093000000	  41.0764000000
O	  42.0715000000	   1.2607093113	  41.0806000000
O	  43.8119000000	   2.8124600000	  41.6452000000
C	  41.3825000000	   3.3840800000	  42.2825000000
F	  41.6156000000	   2.9487000000	  43.5297000000
F	  40.0838000000	   3.0704600000	  41.9858000000
F	  41.5685000000	   4.6705900000	  42.3905000000
S	  42.2814000000	   2.7278600000	  38.3148000000
O	  42.0639000000	   1.2923093113	  38.2838000000
O	  43.4049000000	   3.2911400000	  37.5654000000
C	  40.8509000000	   3.4100800000	  37.4240000000
F	  40.6721000000	   2.8584800000	  36.2630000000
F	  39.7732000000	   3.1993500000	  38.0702000000
F	  40.9725000000	   4.6867000000	  37.2000000000
