46

Li	  25.2030000000	   6.2332500000	  37.1754000000
O	  25.6363000000	   9.8725400000	  35.7793000000
O	  25.8961000000	   7.7041700000	  36.3602000000
C	  26.6798000000	   9.3717500000	  34.9303000000
C	  27.0893000000	   8.0092200000	  35.5573000000
C	  25.4412000000	   8.9210800000	  36.7603000000
H	  26.3249000000	   9.2626500000	  33.8231000000
H	  27.4481000000	  10.1176000000	  35.0095000000
H	  27.4342000000	   7.2043100000	  34.8801000000
H	  27.8528000000	   8.3143500000	  36.2172000000
H	  25.9359000000	   9.1307100000	  37.6857000000
H	  24.3992000000	   8.7863700000	  37.1047000000
O	  24.9072000000	   2.6685200000	  35.5090000000
O	  24.9703000000	   4.7620700000	  36.2194000000
C	  25.2816000000	   3.3885900000	  34.3999000000
C	  25.7865000000	   4.7190300000	  35.0397000000
C	  24.3079000000	   3.5298600000	  36.2799000000
H	  26.0982000000	   2.9344400000	  33.8367000000
H	  24.4386000000	   3.6014600000	  33.7672000000
H	  26.8516000000	   4.6284600000	  35.2833000000
H	  25.5654000000	   5.6099900000	  34.4250000000
H	  23.2493000000	   3.6582200000	  35.8546000000
H	  24.1561000000	   3.1364000000	  37.3166000000
N	  28.4011000000	   3.6389700000	  37.2279000000
S	  28.3128000000	   4.6120800000	  38.4409000000
O	  29.5238000000	   4.9776400000	  39.0664000000
O	  27.3372000000	   5.6214800000	  38.0870000000
C	  27.4477000000	   3.5456600000	  39.5932000000
F	  26.2088000000	   3.2595300000	  39.2039000000
F	  27.3201000000	   4.2278400000	  40.7921000000
F	  28.0205000000	   2.3413800000	  39.7759000000
S	  29.6479000000	   3.4763900000	  36.2660000000
O	  30.8469000000	   3.0886500000	  36.9498000000
O	  29.6795000000	   4.4246600000	  35.1920000000
C	  29.2774000000	   1.9323000000	  35.3655000000
F	  28.1667000000	   1.9976100000	  34.5850000000
F	  30.3190000000	   1.6222500000	  34.5778000000
F	  29.1107000000	   0.8850093113	  36.1311000000
S	  18.6641000000	  -0.6250906887	  41.9357000000
S	  18.6756000000	   1.5186100000	  41.6112000000
S	  19.3745000000	   2.5629700000	  43.2951000000
S	  22.9952000000	   4.1956400000	  40.3748000000
S	  24.0401000000	   5.6973300000	  39.3662000000
S	  22.8644000000	   6.7160300000	  37.9177000000
S	  22.1348000000	   4.6882500000	  42.2884000000
S	  21.4348000000	   2.9138100000	  43.2042000000
