59

Li	  33.5416000000	  43.4369000000	  10.6972000000
P	  33.2019000000	  43.7038000000	   8.0646800000
F	  29.2103000000	  41.7559000000	   8.3450400000
F	  30.6892000000	  42.7232000000	   6.9798100000
F	  31.2754000000	  41.0237000000	   8.0612100000
F	  34.7904000000	  47.0169000000	   8.6825700000
F	  36.7258000000	  46.6525000000	   7.8686100000
F	  35.1285000000	  45.9322000000	   6.7100200000
F	  34.7438000000	  43.5732000000	   4.8297500000
F	  34.1351000000	  41.5091000000	   4.2170000000
F	  32.7891000000	  42.8105000000	   5.2373300000
O	  32.3613000000	  43.2956000000	   9.3619500000
O	  34.4676000000	  44.1262000000	   9.0781300000
O	  33.7054000000	  42.1576000000	   7.5527700000
C	  30.9106000000	  43.0188000000	   9.2848100000
C	  35.6558000000	  44.7601000000	   8.6442700000
C	  34.5462000000	  41.9742000000	   6.4616000000
C	  30.4890000000	  42.0935000000	   8.1142800000
C	  35.5286000000	  46.1253000000	   7.9756400000
C	  34.0268000000	  42.4893000000	   5.1401900000
H	  30.7443000000	  42.5515000000	  10.2346000000
H	  30.3369000000	  43.9146000000	   9.1568900000
H	  36.0586000000	  45.1494000000	   9.6203900000
H	  36.3892000000	  44.0248000000	   8.2483300000
H	  35.5645000000	  42.4104000000	   6.6663900000
H	  34.7000000000	  40.9083000000	   6.4272400000
P	  33.5282000000	  44.7124000000	  12.9204000000
F	  32.5987000000	  48.0407000000	  12.0025000000
F	  30.4118000000	  48.0744000000	  12.2029000000
F	  31.6546000000	  47.2314000000	  13.7707000000
F	  34.0895000000	  42.5538000000	  15.5686000000
F	  32.3125000000	  43.8328000000	  15.2612000000
F	  32.1107000000	  41.7642000000	  15.8065000000
F	  36.1807000000	  45.9864000000	  12.7091000000
F	  36.0808000000	  44.9250000000	  14.5652000000
F	  37.8413000000	  44.7598000000	  13.2899000000
O	  32.7103000000	  45.3300000000	  11.5766000000
O	  32.7302000000	  43.3453000000	  12.7192000000
O	  34.7088000000	  44.0931000000	  11.9995000000
C	  31.3897000000	  46.0477000000	  11.6853000000
C	  32.6886000000	  42.2093000000	  13.6405000000
C	  35.9817000000	  43.7214000000	  12.5434000000
C	  31.4910000000	  47.3938000000	  12.4673000000
C	  32.8749000000	  42.6058000000	  15.0999000000
C	  36.5637000000	  44.8983000000	  13.2982000000
H	  30.9685000000	  46.1877000000	  10.7306000000
H	  30.7069000000	  45.2604000000	  12.1194000000
H	  31.8069000000	  41.5975000000	  13.4670000000
H	  33.4726000000	  41.4337000000	  13.3198000000
H	  35.8323000000	  42.9707000000	  13.3049000000
H	  36.5598000000	  43.3512000000	  11.7028000000
S	  34.4337000000	  41.1931000000	  10.7107000000
S	  36.5357000000	  40.9608000000	  10.1399000000
S	  36.8903000000	  39.2919000000	   8.9847700000
S	  38.9055000000	  36.6532000000	   5.4420000000
S	  39.5456000000	  35.1936000000	   6.8402200000
S	  41.6796000000	  34.9749000000	   6.7836500000
S	  37.1398000000	  37.6521000000	   5.9272100000
S	  37.4794000000	  39.4685000000	   6.9067200000
