81

Li	  37.4157000000	  16.2906000000	  58.1160000000
P	  39.4895000000	  17.5935000000	  57.3742000000
F	  38.8777000000	  18.6093000000	  54.7154000000
F	  37.1671000000	  20.0676000000	  54.7231000000
F	  38.7095000000	  20.3124000000	  56.1852000000
F	  41.2174000000	  16.2635000000	  55.1648000000
F	  42.0594000000	  16.2439000000	  57.1434000000
F	  41.9801000000	  14.4063000000	  55.9087000000
F	  37.9671000000	  19.3587000000	  59.6146636622
F	  39.5471000000	  19.9788000000	  61.0419736622
F	  39.9243000000	  20.0237000000	  58.9496236622
O	  37.8911000000	  17.9386000000	  57.4684000000
O	  38.9721000000	  16.1219000000	  56.8485000000
O	  39.4712000000	  17.1337000000	  58.9597336622
C	  37.1665000000	  18.5611000000	  56.3983000000
C	  39.9400000000	  15.1295000000	  56.7359000000
C	  39.9608000000	  17.9692000000	  59.9830636622
C	  38.0595000000	  19.3977000000	  55.4726000000
C	  41.3434000000	  15.5528000000	  56.2626000000
C	  39.2910000000	  19.3691000000	  59.9114136622
H	  36.7845000000	  17.7590000000	  55.8214000000
H	  36.3183000000	  19.1009000000	  56.8258000000
H	  40.0976000000	  14.5946000000	  57.6713000000
H	  39.4460000000	  14.5078000000	  56.0192000000
H	  39.6061000000	  17.5681000000	  60.9578036622
H	  41.0175000000	  18.1086000000	  59.9807936622
P	  37.6728000000	  14.8732000000	  64.3392936622
F	  40.5917000000	  15.3846000000	  64.7110836622
F	  39.6847000000	  15.3973000000	  66.7180036622
F	  41.4822000000	  14.4211000000	  66.3494436622
F	  39.2176000000	  14.7279000000	  61.0491536622
F	  37.3985000000	  15.3861000000	  59.9228036622
F	  37.8210000000	  16.3767000000	  61.8015936622
F	  36.1888000000	  17.4020000000	  63.7869336622
F	  34.2876000000	  17.5725000000	  64.5643136622
F	  35.9565000000	  17.1154000000	  65.8892836622
O	  38.2606000000	  13.7165000000	  65.4033536622
O	  37.6085000000	  13.7762000000	  63.0826036622
O	  36.1541000000	  14.5426000000	  64.9382436622
C	  39.6210000000	  13.4249000000	  65.3457236622
C	  37.1195000000	  14.0952000000	  61.8105736622
C	  35.0961000000	  15.3297000000	  64.4586636622
C	  40.3618000000	  14.7461000000	  65.8615336622
C	  37.9518000000	  15.1978000000	  61.1034436622
C	  35.4181000000	  16.8843000000	  64.7099436622
H	  39.9213000000	  12.6904000000	  66.0200636622
H	  39.9626000000	  13.1342000000	  64.3695936622
H	  37.1497000000	  13.2165000000	  61.1488436622
H	  36.0933000000	  14.4206000000	  61.8098936622
H	  34.8881000000	  15.0755000000	  63.4561436622
H	  34.1971000000	  15.1221000000	  65.0679736622
N	  35.2092000000	  12.9697000000	  58.4220000000
S	  33.8346000000	  12.2922000000	  58.7385936622
O	  33.3428000000	  12.5638000000	  60.0926736622
O	  32.9266000000	  12.2130000000	  57.6262000000
C	  34.4291000000	  10.5919000000	  58.8779236622
F	  35.3542000000	  10.4519000000	  59.8249536622
F	  34.8887000000	  10.0959000000	  57.7936000000
F	  33.4282000000	   9.7114700000	  59.2236536622
S	  35.6433000000	  13.7696000000	  57.1291000000
O	  36.3368000000	  15.0096000000	  57.4298000000
O	  34.6876000000	  13.8537000000	  55.9821000000
C	  36.9506000000	  12.7355000000	  56.3644000000
F	  37.3384000000	  13.1621000000	  55.1487000000
F	  38.1455000000	  12.5984000000	  57.0230000000
F	  36.5391000000	  11.4783000000	  56.2489000000
N	  33.1346000000	  16.8339000000	  58.8510036622
S	  32.9831000000	  16.4102000000	  57.3188000000
O	  34.0225000000	  16.9857000000	  56.4852000000
O	  32.6352000000	  15.0184000000	  57.1312000000
C	  31.4472000000	  17.2933000000	  56.8520000000
F	  31.1460000000	  17.2330000000	  55.5296000000
F	  31.4372000000	  18.5500000000	  57.2124000000
F	  30.4796000000	  16.6234000000	  57.3906000000
S	  34.4783000000	  17.0822000000	  59.6726136622
O	  35.7243000000	  17.3439000000	  58.9595836622
O	  34.5616000000	  16.3029000000	  60.8742536622
C	  34.1017000000	  18.7754000000	  60.3933236622
F	  32.9607000000	  18.7782000000	  61.0893536622
F	  35.0944000000	  19.1600000000	  61.2106836622
F	  34.0232000000	  19.7928000000	  59.5218236622
