67

Li	  41.6423000000	  57.3248000000	  38.1834000000
O	  40.7619000000	  56.1378000000	  39.4411000000
O	  40.4858000000	  55.1237000000	  41.4124000000
C	  40.4767000000	  54.7683000000	  39.0636000000
C	  40.0905000000	  54.1388000000	  40.4080000000
C	  40.3177000000	  56.3282000000	  40.7500000000
H	  39.5987000000	  54.6712000000	  38.3870000000
H	  41.4488000000	  54.3657000000	  38.6858000000
H	  39.0024000000	  54.1266000000	  40.2945000000
H	  40.4791000000	  53.1733000000	  40.5165000000
H	  40.7226000000	  57.0922000000	  41.3732000000
H	  39.2558000000	  56.6811000000	  40.7862000000
P	  43.6392000000	  58.4392000000	  39.1602000000
F	  43.7366000000	  61.1038606887	  38.1564000000
F	  45.7504000000	  60.1385006887	  37.8003000000
F	  44.8372000000	  61.4714206887	  36.3593000000
F	  43.4325000000	  60.6864106887	  40.8387000000
F	  41.6877000000	  61.5139806887	  41.5808000000
F	  42.1825000000	  59.4390206887	  42.2779000000
F	  46.3251000000	  54.8682000000	  39.8480000000
F	  46.0020000000	  56.3587000000	  38.3383000000
F	  46.2761000000	  57.1208000000	  40.2364000000
O	  43.0354000000	  58.7122106887	  37.6439000000
O	  41.9819000000	  58.5047000000	  39.5269000000
O	  43.4309000000	  56.8083000000	  38.9305000000
C	  43.8798000000	  59.3185306887	  36.6686000000
C	  41.4182000000	  59.6657906887	  40.0706000000
C	  44.1881000000	  55.8179000000	  39.6160000000
C	  44.5754000000	  60.5376406887	  37.2744000000
C	  42.2363000000	  60.3202206887	  41.2199000000
C	  45.7835000000	  56.0848000000	  39.5853000000
H	  44.6841000000	  58.6464000000	  36.3162000000
H	  43.3380000000	  59.6562906887	  35.7819000000
H	  41.2452000000	  60.3627506887	  39.2197000000
H	  40.3981000000	  59.4633306887	  40.4183000000
H	  43.8678000000	  55.8092000000	  40.6306000000
H	  43.8170000000	  54.8660000000	  39.2430000000
N	  38.1715000000	  59.9322706887	  36.7129000000
S	  36.7372000000	  60.2505806887	  36.1172000000
O	  36.5255000000	  59.7398706887	  34.8026000000
O	  35.6740000000	  60.1684406887	  37.0826000000
C	  36.9037000000	  62.0147106887	  35.8943000000
F	  37.7654000000	  62.2381706887	  34.9261000000
F	  37.2818000000	  62.6712906887	  37.0030000000
F	  35.8019000000	  62.6740506887	  35.5676000000
S	  39.1106000000	  58.7210006887	  36.5380000000
O	  38.5929000000	  57.7472000000	  35.6323000000
O	  39.7529000000	  58.3197000000	  37.7566000000
C	  40.4051000000	  59.5886106887	  35.5779000000
F	  41.1139000000	  60.3995506887	  36.2858000000
F	  41.2067000000	  58.7257906887	  34.9826000000
F	  39.8841000000	  60.3457306887	  34.6465000000
N	  40.9289000000	  55.5528000000	  34.1513000000
S	  39.5632000000	  54.7883000000	  33.8939000000
O	  39.1826000000	  53.7852000000	  34.8730000000
O	  38.5179000000	  55.6901000000	  33.5363000000
C	  39.8261000000	  53.9657000000	  32.2667000000
F	  40.4546000000	  52.8481000000	  32.3941000000
F	  40.5265000000	  54.7362000000	  31.4199000000
F	  38.6711000000	  53.6279000000	  31.6935000000
S	  41.8723000000	  55.3926000000	  35.3364000000
O	  42.2064000000	  54.0292000000	  35.7007000000
O	  41.6322000000	  56.3934000000	  36.3910000000
C	  43.4117000000	  56.0010000000	  34.5988000000
F	  44.4569000000	  55.8905000000	  35.4307000000
F	  43.6756000000	  55.3512000000	  33.4825000000
F	  43.3097000000	  57.3161000000	  34.2746000000
