59

Li	  27.4953000000	  48.3292000000	  37.3760000000
P	  27.7105000000	  45.1338000000	  36.3121000000
F	  24.8209000000	  44.7710000000	  35.8291000000
F	  25.0975000000	  43.2506000000	  37.3371000000
F	  23.5855000000	  44.7638000000	  37.5322000000
F	  29.1893000000	  46.3707000000	  33.2045000000
F	  27.2024000000	  46.2146000000	  33.8443000000
F	  27.9297000000	  48.0624000000	  33.0444000000
F	  27.7108000000	  42.2081000000	  36.7771000000
F	  28.4406000000	  42.8479000000	  34.8177000000
F	  29.3819000000	  41.0948000000	  35.9417000000
O	  27.0984000000	  44.9612000000	  37.7926000000
O	  27.9585000000	  46.8742000000	  36.3283000000
O	  29.3593000000	  44.7567000000	  36.5201000000
C	  25.7801000000	  45.3178000000	  37.9746000000
C	  28.5209000000	  47.5417000000	  35.2234000000
C	  29.7167000000	  43.3489000000	  36.7657000000
C	  24.8522000000	  44.5005000000	  37.1502000000
C	  28.2328000000	  47.0523000000	  33.8097000000
C	  28.8275000000	  42.3547000000	  36.0515000000
H	  25.5642000000	  45.1512000000	  39.0652000000
H	  25.5080000000	  46.3479000000	  37.9337000000
H	  28.4169000000	  48.5775000000	  35.3484000000
H	  29.6258000000	  47.3866000000	  35.2621000000
H	  30.7405000000	  43.2141000000	  36.5212000000
H	  29.8234000000	  43.2368000000	  37.8196000000
P	  29.5679000000	  49.8085000000	  38.5620000000
F	  27.4345000000	  47.6533000000	  41.5983000000
F	  29.3863000000	  47.3568000000	  42.1554000000
F	  28.9921000000	  49.3091000000	  41.4000000000
F	  34.0939000000	  49.8310000000	  37.6282000000
F	  32.5345000000	  51.1332000000	  38.4065000000
F	  32.6134000000	  49.1046000000	  39.0235000000
F	  29.9554000000	  52.7200000000	  37.6394000000
F	  28.1247000000	  53.6730000000	  37.0367000000
F	  28.1812000000	  52.5531000000	  38.8782000000
O	  28.6279000000	  48.4417000000	  38.8633000000
O	  30.5578000000	  48.9503000000	  37.5494000000
O	  28.4521000000	  50.1149000000	  37.3724000000
C	  29.0490000000	  47.4504000000	  39.8824000000
C	  31.8241000000	  49.3608000000	  36.9897000000
C	  28.2412000000	  51.3759000000	  36.7351000000
C	  28.6696000000	  47.9840000000	  41.2424000000
C	  32.8111000000	  49.9061000000	  38.0238000000
C	  28.6594000000	  52.5862000000	  37.6058000000
H	  28.5109000000	  46.4816000000	  39.7247000000
H	  30.0739000000	  47.3324000000	  39.6915000000
H	  32.4184000000	  48.6075000000	  36.5070000000
H	  31.5846000000	  50.1043000000	  36.2648000000
H	  28.8573000000	  51.4697000000	  35.8815000000
H	  27.2055000000	  51.4379000000	  36.3965000000
S	  25.5580000000	  48.9919000000	  36.8719000000
S	  25.7748000000	  48.8204000000	  39.0401000000
S	  24.1400000000	  49.7261000000	  40.0113000000
S	  20.7948000000	  45.7697000000	  39.5797000000
S	  18.9332000000	  45.6166000000	  38.5780000000
S	  18.6525000000	  44.4662000000	  36.8043000000
S	  21.1880000000	  47.8308000000	  40.0804000000
S	  22.9022000000	  48.3939000000	  41.1259000000
