38

Li	  30.1910000000	  17.6592000000	  10.5879000000
O	  28.6230000000	  18.9484000000	  10.8166000000
O	  27.7943000000	  20.1979000000	  12.5063000000
C	  27.2655000000	  18.6299000000	  10.8856000000
C	  26.7164000000	  19.6920000000	  11.8187000000
C	  28.8105000000	  20.1508000000	  11.5658000000
H	  26.8940000000	  18.7033000000	   9.9290800000
H	  27.2330000000	  17.5639000000	  11.3118000000
H	  26.2010000000	  20.4729000000	  11.2884000000
H	  26.0256000000	  19.2495000000	  12.5666000000
H	  29.6909000000	  20.1036000000	  12.1137000000
H	  28.7372000000	  20.9659000000	  10.8468000000
O	  32.2751000000	  17.5675000000	  11.7040000000
O	  34.0517000000	  17.3508000000	  13.1292000000
C	  33.1029000000	  16.5246000000	  11.2020000000
C	  34.4374000000	  16.8165000000	  11.8916000000
C	  32.9857000000	  18.1655000000	  12.8018000000
H	  32.7706000000	  15.6077000000	  11.5907000000
H	  33.1888000000	  16.6017000000	  10.1653000000
H	  35.0377000000	  15.9169000000	  12.1154000000
H	  35.1391000000	  17.4911000000	  11.3694000000
H	  33.2815000000	  19.1399000000	  12.4206000000
H	  32.4467000000	  18.2702000000	  13.7652000000
N	  29.8427000000	  14.3130000000	  10.4495000000
S	  30.1232000000	  14.9347000000	   9.0048600000
O	  30.4327000000	  16.3102000000	   9.1538200000
O	  30.8465000000	  14.0923000000	   8.0502200000
C	  28.4511000000	  15.0170000000	   8.1948900000
F	  27.7669000000	  16.1581000000	   8.5005100000
F	  27.7226000000	  13.9265000000	   8.4425900000
F	  28.6431000000	  15.1115000000	   6.8486400000
S	  29.7380000000	  14.9216000000	  11.8535000000
O	  29.5272000000	  16.3396000000	  11.9267000000
O	  30.6347000000	  14.3364000000	  12.8071000000
C	  28.1011000000	  14.1734000000	  12.2175000000
F	  27.6243000000	  14.5631000000	  13.4070000000
F	  27.1484000000	  14.5350000000	  11.3624000000
F	  28.0350000000	  12.8356000000	  12.2323000000
