42

Li	  15.3419000000	   3.1579100000	  12.9147000000
O	  13.2548000000	   3.1680400000	  12.8070000000
O	  11.3594000000	   3.0934700000	  11.6293000000
C	  12.3634000000	   2.3636100000	  13.4778000000
C	  11.0066000000	   2.7029500000	  12.8860000000
C	  12.5430000000	   3.8070700000	  11.7826000000
H	  12.5089000000	   1.2990093113	  13.2875000000
H	  12.4061000000	   2.5324500000	  14.6028000000
H	  10.3677000000	   1.7899400000	  12.7067000000
H	  10.3609000000	   3.3644000000	  13.4130000000
H	  12.2598000000	   4.8585200000	  11.9600000000
H	  13.0756000000	   3.8102000000	  10.7901000000
O	  15.2926000000	   2.3716700000	  14.5277000000
O	  15.2331000000	   0.8483093113	  16.1987000000
C	  15.3400000000	   3.1233000000	  15.6657000000
C	  14.6998000000	   2.1011700000	  16.6424000000
C	  15.7642000000	   1.1561093113	  14.9608000000
H	  16.2783000000	   3.5347200000	  15.8862000000
H	  14.6607000000	   4.0246900000	  15.6646000000
H	  15.0189000000	   2.2814800000	  17.6728000000
H	  13.6237000000	   2.1050800000	  16.5701000000
H	  15.3825000000	   0.3679093113	  14.2950000000
H	  16.8991000000	   1.1693093113	  14.9938000000
O	  16.0909000000	   1.9102300000	  11.6862000000
O	  16.8284000000	   0.0982093113	  10.7319000000
C	  15.4924000000	   1.8747600000	  10.4482000000
C	  16.0642000000	   0.7008093113	   9.7363600000
C	  17.2160000000	   1.1304093113	  11.5270000000
H	  14.3479000000	   1.7619800000	  10.6246000000
H	  15.5954000000	   2.8526600000	   9.8467900000
H	  15.2758000000	   0.0636093113	   9.3847400000
H	  16.6652000000	   1.0468093113	   8.8822100000
H	  18.0597000000	   1.7125700000	  11.2233000000
H	  17.4450000000	   0.6318093113	  12.5240000000
S	  26.3235000000	   2.8808200000	  10.4549000000
S	  24.3322000000	   2.9438100000	   9.8351500000
S	  23.3077000000	   4.8195000000	  10.3123000000
S	  18.8571000000	   5.6935000000	  12.6541000000
S	  17.2403000000	   4.4964800000	  13.2425000000
S	  15.6318000000	   5.0104600000	  12.1016000000
S	  20.2497000000	   4.8632500000	  11.3306000000
S	  22.2165000000	   4.7114600000	  12.0480000000
