64

Li	  43.7305000000	  36.5996000000	  45.2777000000
P	  41.1266000000	  36.7689000000	  46.0945000000
F	  39.4433000000	  39.3909000000	  45.0869000000
F	  40.4240000000	  41.0367000000	  44.2157000000
F	  39.8014000000	  39.2942000000	  43.0225000000
F	  39.3804000000	  34.8889000000	  44.2839000000
F	  40.0096000000	  32.7670000000	  44.4374000000
F	  39.9106000000	  33.9170000000	  46.2182000000
F	  42.7073000000	  34.6806000000	  49.7863000000
F	  40.8614000000	  35.3519000000	  48.8923000000
F	  42.2762000000	  34.2192000000	  47.6876000000
O	  41.5705000000	  37.5615000000	  44.7079000000
O	  42.0457000000	  35.4706000000	  45.5588000000
O	  42.5739000000	  36.9644000000	  46.8564000000
C	  41.5913000000	  38.9811000000	  44.6381000000
C	  41.5943000000	  34.3974000000	  44.7011000000
C	  42.8832000000	  36.3330000000	  48.1821000000
C	  40.2865000000	  39.7202000000	  44.1480000000
C	  40.1108000000	  34.0178000000	  44.9311000000
C	  42.0960000000	  35.0999000000	  48.6543000000
H	  41.8819000000	  39.3862000000	  45.6024000000
H	  42.4643000000	  39.2463000000	  44.0289000000
H	  41.8681000000	  34.4615000000	  43.6533000000
H	  42.2446000000	  33.5901000000	  45.1548000000
H	  43.9392000000	  36.1163000000	  48.0879000000
H	  42.6512000000	  37.0991000000	  48.9517000000
N	  44.7114000000	  36.2716000000	  40.9399000000
S	  45.4310000000	  34.9513000000	  41.3370000000
O	  46.4578000000	  35.1371000000	  42.3250000000
O	  44.5545000000	  33.8194000000	  41.5593000000
C	  46.3458000000	  34.6543000000	  39.7302000000
F	  47.4074000000	  35.4254000000	  39.5435000000
F	  45.5821000000	  34.8170000000	  38.6515000000
F	  46.9411000000	  33.4724000000	  39.6100000000
S	  43.8465000000	  37.1707000000	  41.8708000000
O	  43.9879000000	  38.5548000000	  41.6330000000
O	  43.8302000000	  36.6663000000	  43.2288000000
C	  42.2225000000	  36.8349000000	  41.2696000000
F	  42.1009000000	  37.1924000000	  39.9949000000
F	  41.9005000000	  35.5487000000	  41.2351000000
F	  41.3291000000	  37.4848000000	  41.9291000000
N	  45.5778000000	  40.4292000000	  44.1410000000
S	  45.5959000000	  39.3982000000	  45.2979000000
O	  45.9779000000	  40.0246000000	  46.5352000000
O	  44.5084000000	  38.4508000000	  45.3056000000
C	  47.1102000000	  38.4411000000	  44.8834000000
F	  46.9664000000	  37.4770000000	  43.9674000000
F	  47.5873000000	  37.7261000000	  45.9462000000
F	  48.1016000000	  39.2007000000	  44.4437000000
S	  45.9033000000	  41.8953000000	  44.2325000000
O	  47.1967000000	  42.2224000000	  43.7149000000
O	  45.4846000000	  42.5812000000	  45.4546000000
C	  44.6792000000	  42.4903000000	  43.0146000000
F	  44.9243000000	  41.9404000000	  41.8398000000
F	  43.4032000000	  42.1588000000	  43.2952000000
F	  44.6514000000	  43.8060000000	  42.8385000000
S	  43.4946000000	  41.9209000000	  47.8621000000
S	  43.3133000000	  39.8628000000	  48.0957000000
S	  43.7201000000	  39.3239000000	  50.0255000000
S	  47.0696000000	  35.5772000000	  48.5891000000
S	  46.1345000000	  34.2257000000	  47.2049000000
S	  45.3899000000	  35.2902000000	  45.4743000000
S	  45.7112000000	  36.1676000000	  50.1239000000
S	  45.6232000000	  38.3588000000	  50.1832000000
