31

Li	  23.2277000000	   1.4174300000	   2.7894800000
O	  23.7553000000	   0.6858093113	  -1.0302736622
O	  23.6110000000	   0.4848093113	   1.2407263378
C	  22.5897000000	  -0.0767906887	  -0.7045736622
C	  22.9811000000	  -0.6577906887	   0.5924263378
C	  24.3296000000	   1.0777093113	   0.1594263378
H	  21.6276000000	   0.4937093113	  -0.4911736622
H	  22.3329000000	  -0.8833906887	  -1.3917736622
H	  22.0884000000	  -0.9320906887	   1.1643263378
H	  23.6903000000	  -1.5193906887	   0.5174263378
H	  25.2656000000	   0.5704093113	   0.1592263378
H	  24.5137000000	   2.1591000000	   0.3907263378
O	  26.1578000000	   3.0469700000	   5.2895600000
O	  24.7673000000	   1.9359100000	   3.8783700000
C	  25.6182000000	   1.9399900000	   5.9519500000
C	  25.1570000000	   1.0579093113	   4.8474400000
C	  25.5599000000	   3.0200700000	   4.0997100000
H	  26.3595000000	   1.3736800000	   6.5622800000
H	  24.8423000000	   2.2550400000	   6.6881600000
H	  25.8350000000	   0.2883093113	   4.5163100000
H	  24.2718000000	   0.4746093113	   5.1083200000
H	  24.9048000000	   3.9385400000	   4.2553600000
H	  26.2247000000	   3.1142000000	   3.2171100000
S	  28.9884000000	   4.3333200000	   3.5669800000
S	  27.9106000000	   5.4244500000	   2.0501000000
S	  26.7994000000	   4.2054300000	   0.7592263378
S	  22.1156000000	   3.2947300000	   1.3546000000
S	  20.9182000000	   2.7741500000	   3.0456400000
S	  21.4501000000	   0.9228093113	   3.8362300000
S	  23.5496000000	   4.7789700000	   1.7975200000
S	  25.0252000000	   5.1537300000	   0.4202263378
