66

Li	  32.7021000000	   4.8025000000	  42.6466000000
P	  32.8515000000	   2.2491700000	  43.8390000000
F	  29.5072000000	   3.7563400000	  46.6916000000
F	  31.1118000000	   2.2983600000	  46.6256000000
F	  31.5952000000	   4.5417000000	  46.6538000000
F	  35.9347000000	   0.9578093113	  40.6499000000
F	  35.1889000000	   0.3314093113	  42.5458000000
F	  33.8152000000	   0.9696093113	  40.9297000000
F	  34.1029000000	  -0.4415906887	  44.9813000000
F	  35.0240000000	  -0.2265906887	  47.0011000000
F	  33.0063000000	   0.4752093113	  46.6199000000
O	  31.7371000000	   3.4960300000	  43.7749000000
O	  33.7163000000	   3.0910700000	  42.6479000000
O	  33.7588000000	   2.6329900000	  45.1331000000
C	  30.5570000000	   3.5310300000	  44.6881000000
C	  34.9598000000	   2.6070200000	  42.0795000000
C	  34.6776000000	   1.7791100000	  45.6444000000
C	  30.7496000000	   3.5930700000	  46.2139000000
C	  34.9650000000	   1.1899093113	  41.5281000000
C	  34.2400000000	   0.3932093113	  46.0373000000
H	  30.1628000000	   4.5331400000	  44.4193000000
H	  29.8230000000	   2.7024500000	  44.3608000000
H	  35.0962000000	   3.1704600000	  41.1502000000
H	  35.8901000000	   2.8536000000	  42.6268000000
H	  35.3783000000	   1.6264400000	  44.8574000000
H	  35.1703000000	   2.3234600000	  46.4459000000
P	  34.0420000000	   6.7509900000	  43.1501000000
F	  36.4614000000	   7.3699600000	  45.4721000000
F	  34.5418000000	   8.2451700000	  45.6954000000
F	  35.5345000000	   7.3855700000	  47.3739000000
F	  35.5807000000	   7.7543600000	  39.0874000000
F	  34.5496000000	   8.7619400000	  40.6647000000
F	  36.2879000000	   7.6689700000	  41.1542000000
F	  30.6518000000	   9.5921900000	  43.3611000000
F	  32.4119000000	   8.8942200000	  44.3612000000
F	  32.4151000000	   9.1807800000	  42.1817000000
O	  34.5830000000	   5.6420000000	  44.2504000000
O	  34.0475000000	   5.8954300000	  41.7406000000
O	  32.4258000000	   6.3945400000	  43.5385000000
C	  34.5819000000	   5.8287500000	  45.6479000000
C	  34.2043000000	   6.5188300000	  40.4363000000
C	  31.2943000000	   7.2742800000	  43.2218000000
C	  35.3158000000	   7.1907400000	  46.0277000000
C	  35.1530000000	   7.6840700000	  40.3374000000
C	  31.6778000000	   8.7794500000	  43.2671000000
H	  33.6126000000	   5.8276700000	  46.0506000000
H	  35.0558000000	   5.0246900000	  46.0988000000
H	  34.6046000000	   5.6670300000	  39.9254000000
H	  33.3459000000	   6.7883800000	  39.9228000000
H	  31.1156000000	   7.1930700000	  42.1811000000
H	  30.3008000000	   7.1064200000	  43.5873000000
N	  29.0632000000	   3.5851200000	  40.3535000000
S	  28.0550000000	   4.3003600000	  41.2895000000
O	  28.7927000000	   5.0084600000	  42.3322000000
O	  26.9916000000	   4.9543800000	  40.5446000000
C	  27.3001000000	   2.8508300000	  42.2712000000
F	  26.3103000000	   2.2161200000	  41.6661000000
F	  26.6877000000	   3.3069200000	  43.3718000000
F	  28.1779000000	   1.8940600000	  42.5949000000
S	  30.5947000000	   3.2565500000	  40.6510000000
O	  30.7723000000	   1.9678200000	  41.3227000000
O	  31.4139000000	   4.3422100000	  41.1423000000
C	  31.1814000000	   2.8437800000	  38.9573000000
F	  30.4525000000	   1.8873600000	  38.4542000000
F	  31.1953000000	   3.8253600000	  38.1227000000
F	  32.4155000000	   2.4141900000	  38.9981000000
