56

Li	  34.8797000000	  38.5509000000	  31.8173000000
O	  33.6963000000	  40.1051000000	  35.5118000000
O	  34.1602000000	  38.8083000000	  33.6062000000
C	  32.4140000000	  39.6450000000	  35.1117000000
C	  32.8337000000	  38.4954000000	  34.1079000000
C	  34.3964000000	  40.0790000000	  34.2754000000
H	  31.7765000000	  39.1822000000	  35.8840000000
H	  31.8423000000	  40.4984000000	  34.6197000000
H	  32.9585000000	  37.4988000000	  34.6332000000
H	  32.1982000000	  38.4222000000	  33.1891000000
H	  34.1240000000	  40.8404000000	  33.6173000000
H	  35.4547000000	  40.1749000000	  34.4230000000
O	  35.0356000000	  35.2026000000	  30.0572000000
O	  34.4593000000	  36.6637000000	  31.5812000000
C	  35.3785000000	  34.5210000000	  31.2498000000
C	  35.2510000000	  35.6428000000	  32.2606000000
C	  34.0346000000	  36.0553000000	  30.4303000000
H	  34.6326000000	  33.6493000000	  31.2760000000
H	  36.4597000000	  34.1761000000	  31.1846000000
H	  34.5455000000	  35.2550000000	  32.9758000000
H	  36.2259000000	  35.9737000000	  32.5789000000
H	  33.7510000000	  36.6828000000	  29.6089000000
H	  33.1830000000	  35.4366000000	  30.6229000000
P	  37.7740000000	  39.2915000000	  31.7302000000
F	  38.7339000000	  41.7390000000	  30.3541000000
F	  38.1252000000	  43.7328000000	  30.9841000000
F	  39.0983000000	  42.3517000000	  32.3358000000
F	  38.7771000000	  36.5687000000	  33.0338000000
F	  39.5751000000	  37.5711000000	  34.8178000000
F	  37.9642000000	  36.0983000000	  35.0222000000
F	  39.0260000000	  38.9682000000	  28.7923000000
F	  39.2172000000	  37.3242000000	  30.1013000000
F	  38.5531000000	  37.0513000000	  28.0707000000
O	  36.9284000000	  40.5609000000	  32.3815000000
O	  36.9389000000	  38.2652000000	  32.7430000000
O	  36.7574000000	  38.9642000000	  30.4504000000
C	  36.9425000000	  41.8658000000	  31.8488000000
C	  37.3644000000	  38.1151000000	  34.0997000000
C	  36.9972000000	  37.8683000000	  29.6271000000
C	  38.2666000000	  42.4243000000	  31.3369000000
C	  38.4547000000	  37.0729000000	  34.2750000000
C	  38.4820000000	  37.8151000000	  29.1359000000
H	  36.1498000000	  41.9150000000	  31.0537000000
H	  36.5624000000	  42.5333000000	  32.6145000000
H	  37.6090000000	  39.0543000000	  34.5556000000
H	  36.4826000000	  37.9201000000	  34.6338000000
H	  36.7546000000	  36.9069000000	  30.2080000000
H	  36.3583000000	  37.7738000000	  28.7463000000
S	  33.3849000000	  39.4698000000	  30.2350000000
S	  32.6794000000	  41.0302000000	  31.4906000000
S	  32.4283000000	  42.8961000000	  30.4984000000
S	  34.1838000000	  47.5740000000	  29.8611000000
S	  33.0504000000	  47.7336000000	  28.1374000000
S	  31.9820000000	  49.5570000000	  27.8772000000
S	  33.4398000000	  46.2612000000	  31.3244000000
S	  33.9929000000	  44.2638000000	  31.0283000000
