34

Li	  40.2699000000	  33.5431000000	  11.4649000000
P	  41.4937000000	  35.8777000000	  11.0129000000
F	  43.5533000000	  36.0324000000	  13.3382000000
F	  42.3809000000	  37.7810000000	  13.1031000000
F	  42.7044000000	  36.9757000000	  15.1084000000
F	  43.8301000000	  35.7647000000	   9.0633100000
F	  44.1566000000	  34.0678000000	   7.8939700000
F	  42.3718000000	  35.4044000000	   7.5098500000
F	  41.7209000000	  38.1836000000	   8.9458300000
F	  39.9547000000	  39.4184000000	   8.8699300000
F	  41.1036000000	  38.9184000000	  10.7518000000
O	  41.2885000000	  35.0673000000	  12.4306000000
O	  41.2884000000	  34.5695000000	  10.1029000000
O	  39.9260000000	  36.4824000000	  10.7878000000
C	  41.2760000000	  35.8387000000	  13.6015000000
C	  42.3443000000	  33.9125000000	   9.4410300000
C	  39.5510000000	  37.3095000000	   9.7085000000
C	  42.5045000000	  36.6841000000	  13.8417000000
C	  43.1585000000	  34.7966000000	   8.4862900000
C	  40.6194000000	  38.4943000000	   9.5776900000
H	  40.3083000000	  36.4604000000	  13.6269000000
H	  41.1664000000	  35.1628000000	  14.4894000000
H	  42.9813000000	  33.4590000000	  10.1566000000
H	  42.0168000000	  32.9712000000	   8.9206200000
H	  39.3639000000	  36.8892000000	   8.8137400000
H	  38.6018000000	  37.7013000000	  10.0556000000
S	  30.8880000000	  35.3307000000	   7.8870800000
S	  32.6668000000	  34.3822000000	   8.7454200000
S	  33.5167000000	  35.5504000000	  10.3331000000
S	  38.2686000000	  34.2846000000	  12.5022000000
S	  38.9447000000	  32.2565000000	  12.8811000000
S	  40.9884000000	  31.7445000000	  12.3580000000
S	  36.8975000000	  34.7068000000	  10.8740000000
S	  34.8283000000	  34.4324000000	  11.5094000000
