34

Li	  17.8334000000	  17.7501000000	  44.6815000000
P	  17.1431000000	  15.9434000000	  42.7224000000
F	  16.1612000000	  13.3432000000	  43.5364000000
F	  16.3577000000	  12.4036000000	  45.4061000000
F	  15.1809000000	  14.2133000000	  45.3007000000
F	  16.5880000000	  17.1356000000	  39.9652000000
F	  14.8777000000	  17.7516000000	  40.9925000000
F	  15.9765000000	  19.2618000000	  39.7747000000
F	  18.4316000000	  13.4116000000	  41.9339000000
F	  18.0859000000	  13.9996000000	  39.8801000000
F	  20.0507000000	  13.5223000000	  40.4183000000
O	  17.4349000000	  15.8983000000	  44.3593000000
O	  16.9540000000	  17.6256000000	  42.8139000000
O	  18.8267000000	  15.9141000000	  42.4932000000
C	  17.4793000000	  14.6392000000	  45.0525000000
C	  16.9009000000	  18.5852000000	  41.7649000000
C	  19.3082000000	  15.5695000000	  41.1959000000
C	  16.2652000000	  13.6084000000	  44.8428000000
C	  16.1057000000	  18.1846000000	  40.6053000000
C	  18.9388000000	  14.0807000000	  40.8629000000
H	  18.4418000000	  14.2676000000	  44.6244000000
H	  17.7179000000	  14.7612000000	  46.0692000000
H	  16.2868000000	  19.4479000000	  42.1849000000
H	  17.8985000000	  18.8670000000	  41.5436000000
H	  18.8326000000	  16.2692000000	  40.5073000000
H	  20.4118000000	  15.5825000000	  41.1065000000
S	  22.8537000000	  11.4950000000	  45.3778000000
S	  22.6473000000	  13.3513000000	  46.2449000000
S	  20.9259000000	  14.4671000000	  45.5441000000
S	  20.1212000000	  18.8419000000	  43.8363000000
S	  18.9966000000	  20.2625000000	  44.8561000000
S	  16.9574000000	  19.7800000000	  45.0403000000
S	  21.5368000000	  17.8813000000	  45.0526000000
S	  20.7384000000	  16.3887000000	  46.2986000000
