63

Li	   2.9729300000	   4.4549500000	  55.4513000000
O	   2.0405300000	   2.8975800000	  54.7958000000
O	   1.7120100000	   0.7713093113	  53.9794000000
C	   0.8867469614	   2.9474200000	  53.9953000000
C	   1.1941469614	   1.7622800000	  53.0783000000
C	   2.3087500000	   1.5091900000	  54.9894000000
H	  -0.0074530386	   2.7962400000	  54.5997000000
H	   0.8710469614	   3.8599300000	  53.4550000000
H	   0.3361469614	   1.4114900000	  52.4565000000
H	   1.8914000000	   1.8872100000	  52.2458000000
H	   3.3955700000	   1.4586200000	  55.0505000000
H	   1.8485400000	   1.1902093113	  55.9007000000
O	   5.7561800000	   4.4113800000	  52.9795000000
O	   3.8059700000	   5.1995200000	  53.9219000000
C	   5.9289500000	   5.7965100000	  53.4118000000
C	   4.5989900000	   6.3321800000	  53.7487000000
C	   4.3539100000	   4.2919300000	  52.9814000000
H	   6.4893400000	   5.8700300000	  54.3421000000
H	   6.3264100000	   6.3419100000	  52.5750000000
H	   4.5691300000	   7.0994000000	  54.5813000000
H	   4.1186100000	   6.8590700000	  52.9179000000
H	   4.0207100000	   4.4202900000	  51.9169000000
H	   4.1616900000	   3.3295400000	  53.4114000000
P	   4.3506700000	   3.9311600000	  57.5640000000
F	   3.2724500000	   2.9356900000	  60.2122236622
F	   1.5962300000	   1.6539600000	  60.2606436622
F	   3.1718300000	   1.3822200000	  58.7575836622
F	   7.5480000000	   1.1690093113	  56.2943000000
F	   6.7068200000	   2.3834400000	  57.9425000000
F	   5.6115400000	   0.9575093113	  56.7605000000
F	   6.1497000000	   7.8968000000	  58.3246000000
F	   6.3672000000	   5.7779800000	  58.8865536622
F	   6.3924100000	   6.3193900000	  56.8359000000
O	   2.7178500000	   3.6133700000	  57.3292000000
O	   4.7842000000	   3.4853600000	  55.9901000000
O	   3.8868000000	   5.4658900000	  57.1083000000
C	   1.8648400000	   3.3041700000	  58.3828000000
C	   6.0500000000	   2.8951600000	  55.6822000000
C	   4.3157700000	   6.5495300000	  57.8898000000
C	   2.4824900000	   2.2602200000	  59.4111636622
C	   6.5571500000	   1.8641300000	  56.7443000000
C	   5.8179400000	   6.6092400000	  57.9783000000
H	   1.5395800000	   4.2347300000	  58.7767836622
H	   0.9445469614	   2.8189100000	  57.9960000000
H	   6.0848200000	   2.4348600000	  54.6769000000
H	   6.7555600000	   3.7557700000	  55.5798000000
H	   4.0872800000	   7.4776100000	  57.3513000000
H	   3.9204100000	   6.7167300000	  58.9030936622
N	   0.2638469614	   6.7974300000	  53.9325000000
S	   0.4140469614	   7.6663000000	  52.6603000000
O	  -0.7936530386	   8.3468200000	  52.3236000000
O	   1.6051900000	   8.4254700000	  52.7132000000
C	   0.7125469614	   6.2883100000	  51.4271000000
F	   1.0057469614	   6.7678000000	  50.2478000000
F	  -0.3325530386	   5.4224500000	  51.4014000000
F	   1.8079700000	   5.6465200000	  51.8185000000
S	   1.0941469614	   6.8309500000	  55.1873000000
O	   2.1960500000	   7.7514100000	  55.3274000000
O	   1.3756500000	   5.4724600000	  55.5677000000
C	  -0.1166530386	   7.6162200000	  56.2971000000
F	   0.2052469614	   7.9024100000	  57.5199000000
F	  -0.4745530386	   8.7720500000	  55.7350000000
F	  -1.1757530386	   6.8418800000	  56.4732000000
