35

Li	  42.4549000000	  37.2608000000	  43.1258000000
O	  42.2783000000	  33.7050000000	  42.0877000000
O	  42.6220000000	  35.4313000000	  43.3705000000
C	  43.6311000000	  33.6052000000	  42.3902000000
C	  43.8742000000	  34.7466000000	  43.2899000000
C	  41.7666000000	  34.3606000000	  43.0982000000
H	  43.7746000000	  32.6561000000	  42.8687000000
H	  44.2342000000	  33.7002000000	  41.4801000000
H	  44.1494000000	  34.4842000000	  44.2945000000
H	  44.5669000000	  35.3194000000	  42.7273000000
H	  40.7957000000	  34.7091000000	  42.8151000000
H	  41.7641000000	  33.7435000000	  44.0299000000
N	  42.6989000000	  37.3048000000	  39.5467000000
S	  43.9616000000	  37.3975000000	  40.4395000000
O	  43.7773000000	  37.6044000000	  41.8521000000
O	  44.8347000000	  36.3397000000	  40.0952000000
C	  44.7216000000	  38.9875000000	  39.8411000000
F	  45.1187000000	  38.9482000000	  38.6011000000
F	  45.7763000000	  39.2577000000	  40.5702000000
F	  43.9227000000	  39.9611000000	  39.9538000000
S	  41.2059000000	  37.4114000000	  40.0185000000
O	  40.6226000000	  38.6256000000	  39.5656000000
O	  40.9585000000	  36.9633000000	  41.3962000000
C	  40.3549000000	  36.1670000000	  38.9738000000
F	  39.2400000000	  35.6856000000	  39.4124000000
F	  40.0638000000	  36.7421000000	  37.8397000000
F	  41.0566000000	  35.1029000000	  38.6239000000
S	  42.6823000000	  45.0877000000	  51.2160000000
S	  43.0220000000	  42.9521000000	  51.5562000000
S	  42.1966000000	  41.7788000000	  49.9862000000
S	  43.1876000000	  37.8717000000	  47.0878000000
S	  43.0638000000	  38.3309000000	  45.0111000000
S	  41.0481000000	  38.1137000000	  44.2069000000
S	  44.0606000000	  39.2642000000	  48.4245000000
S	  42.8784000000	  39.8249000000	  50.0756000000
