52

Li	  30.9545000000	  55.1124000000	  52.8811000000
O	  29.0241000000	  54.5070000000	  52.6493000000
O	  27.5458000000	  52.8490000000	  53.0077000000
C	  28.1701000000	  54.9161000000	  53.6486000000
C	  27.6928000000	  53.5895000000	  54.2194000000
C	  28.1829000000	  53.5428000000	  52.0049000000
H	  28.6242000000	  55.6882000000	  54.3413000000
H	  27.4558000000	  55.5338000000	  53.0920000000
H	  28.3069000000	  53.0598000000	  54.9269000000
H	  26.7037000000	  53.6738000000	  54.6994000000
H	  27.3596000000	  54.1098000000	  51.5003000000
H	  28.6656000000	  52.7008000000	  51.4926000000
P	  32.2600000000	  56.0918000000	  50.9144000000
F	  35.2317000000	  56.2416000000	  49.5084000000
F	  36.7679000000	  55.0270000000	  50.3271000000
F	  34.9471000000	  54.0814000000	  49.7263000000
F	  32.5630000000	  54.6870000000	  48.1951000000
F	  30.6753000000	  53.7416000000	  47.5648000000
F	  30.6320000000	  55.6842000000	  48.3657000000
F	  33.9497000000	  58.6035000000	  51.3298000000
F	  31.9155000000	  59.0374706887	  50.8198000000
F	  33.0723000000	  60.0829806887	  52.4418000000
O	  33.2921000000	  55.0535000000	  51.6469000000
O	  31.0440000000	  54.9943000000	  50.9189000000
O	  31.7419000000	  56.7225000000	  52.3136000000
C	  34.7540000000	  55.2825000000	  51.6467000000
C	  31.0328000000	  53.9555000000	  49.8829000000
C	  32.3663000000	  57.8588000000	  52.9498000000
C	  35.4731000000	  55.1866000000	  50.2773000000
C	  31.2702000000	  54.5139000000	  48.5031000000
C	  32.7912000000	  58.9099806887	  51.8060000000
H	  34.8517000000	  56.2862000000	  51.8986000000
H	  35.3132000000	  54.7334000000	  52.3791000000
H	  31.7307000000	  53.1686000000	  50.1164000000
H	  30.1293000000	  53.3526000000	  49.7924000000
H	  31.5616000000	  58.2508000000	  53.5833000000
H	  33.1807000000	  57.6199000000	  53.6396000000
N	  33.0694000000	  55.0347000000	  56.4002000000
S	  31.6444000000	  55.3984000000	  55.8486000000
O	  31.2989000000	  56.7705000000	  55.8325000000
O	  31.1983000000	  54.5642000000	  54.7593000000
C	  30.6109000000	  54.8336000000	  57.2027000000
F	  30.7923000000	  55.5449000000	  58.3082000000
F	  30.7380000000	  53.5560000000	  57.5133000000
F	  29.3114000000	  54.8754000000	  56.8858000000
S	  34.4917000000	  55.5826000000	  56.0436000000
O	  35.0569000000	  56.4726000000	  57.0155000000
O	  34.5113000000	  55.9247000000	  54.6311000000
C	  35.5896000000	  54.1387000000	  56.1543000000
F	  36.8210000000	  54.4517000000	  55.8181000000
F	  35.7324000000	  53.7333000000	  57.3517000000
F	  35.1814000000	  53.1679000000	  55.4067000000
