49

Li	  58.5831000000	  12.6718000000	  31.6874000000
P	  59.7806230386	  14.9492000000	  31.7208000000
F	  64.0155030386	  13.7265000000	  31.8865000000
F	  62.5960630386	  15.0830000000	  30.9765000000
F	  62.5284530386	  14.6291000000	  33.1530000000
F	  58.4337000000	  15.9580000000	  27.4502000000
F	  58.1446000000	  16.5130000000	  29.5799000000
F	  60.0718130386	  16.6261000000	  28.7763000000
F	  60.1242230386	  16.4438000000	  34.4343000000
F	  58.2923000000	  17.3139000000	  33.5017000000
F	  58.3914000000	  16.7274000000	  35.5795000000
O	  60.3644330386	  13.4390000000	  32.0664000000
O	  58.9598230386	  14.1080000000	  30.5076000000
O	  58.4285000000	  14.7207000000	  32.6492000000
C	  61.6918530386	  13.0386000000	  31.5854000000
C	  59.2230430386	  14.4048000000	  29.0970000000
C	  58.4029000000	  14.9659000000	  34.0307000000
C	  62.7662430386	  14.1365000000	  31.8970000000
C	  58.9174230386	  15.9313000000	  28.7202000000
C	  58.8339730386	  16.3972000000	  34.4199000000
H	  61.8585030386	  12.0884000000	  32.1120000000
H	  61.8284730386	  12.6276000000	  30.5378000000
H	  60.3358030386	  14.1830000000	  28.9279000000
H	  58.5515000000	  13.8952000000	  28.3500000000
H	  57.3293000000	  14.6829000000	  34.2526000000
H	  59.0942730386	  14.2840000000	  34.5525000000
N	  54.8886000000	  11.9270000000	  30.9089000000
S	  55.2821000000	  12.4666000000	  32.3190000000
O	  54.6265000000	  11.8812000000	  33.4447000000
O	  56.7026000000	  12.7708000000	  32.4547000000
C	  54.4240000000	  14.1564000000	  32.3029000000
F	  54.8543000000	  14.8335000000	  31.2104000000
F	  54.6755000000	  14.9505000000	  33.3197000000
F	  53.0858000000	  13.9891000000	  32.1747000000
S	  55.7468000000	  11.6745000000	  29.5751000000
O	  55.4344000000	  10.4433000000	  28.8800000000
O	  57.1428000000	  12.0940000000	  29.7239000000
C	  55.1401000000	  13.0124000000	  28.4330000000
F	  55.4560000000	  14.1881000000	  28.8827000000
F	  55.6959000000	  12.9981000000	  27.2251000000
F	  53.8575000000	  12.8428000000	  28.2226000000
S	  58.2484000000	   9.0023900000	  40.6924000000
S	  56.5957000000	   7.7123400000	  40.3136000000
S	  55.2515000000	   8.5669900000	  38.8464000000
S	  57.4749000000	   8.8638400000	  34.3843000000
S	  57.3279000000	   9.6157500000	  32.3791000000
S	  59.2338230386	  10.4962000000	  31.7682000000
S	  55.6748000000	   9.0758800000	  35.3761000000
S	  55.2813000000	   7.8136900000	  36.9602000000
