37

Li	  15.6657000000	  11.4548000000	   7.0239500000
O	  17.0214000000	  12.4729000000	   8.3887500000
O	  17.8378000000	  12.5328000000	  10.4328000000
C	  18.3569000000	  12.7884000000	   8.2021300000
C	  18.9260000000	  12.3335000000	   9.5457400000
C	  16.7009000000	  12.8273000000	   9.6585800000
H	  18.7567000000	  12.3019000000	   7.3819500000
H	  18.6015000000	  13.7893000000	   8.0495100000
H	  19.1084000000	  11.2685000000	   9.5470400000
H	  19.7399000000	  12.9613000000	   9.9554000000
H	  16.5411000000	  13.8705000000	   9.5144800000
H	  15.7724000000	  12.4397000000	  10.1421000000
P	  16.3243000000	  10.2175000000	   4.8742500000
F	  17.3850000000	   7.1720000000	   5.1051900000
F	  18.9639000000	   8.6538800000	   4.6430700000
F	  19.2935000000	   7.0771700000	   5.8792700000
F	  14.7556000000	   7.6713400000	   6.2287800000
F	  12.7981000000	   7.6065000000	   5.2295500000
F	  14.6189000000	   7.9536600000	   4.1684100000
F	  18.5735000000	  13.3162000000	   2.7035200000
F	  18.8608000000	  11.4042000000	   3.8431300000
F	  17.2280000000	  11.6014000000	   2.5156700000
O	  16.7546000000	   9.4851300000	   6.3537200000
O	  14.7289000000	  10.6454000000	   5.3154000000
O	  16.8796000000	  11.6198000000	   5.4220300000
C	  18.0582000000	   8.9690700000	   6.5620500000
C	  13.6390000000	   9.7094600000	   5.3913000000
C	  17.1147000000	  12.6790000000	   4.4916400000
C	  18.4039000000	   7.8725500000	   5.5256100000
C	  13.9951000000	   8.2311600000	   5.3257700000
C	  17.9706000000	  12.2825000000	   3.3521000000
H	  18.7365000000	   9.8319500000	   6.6726300000
H	  17.9101000000	   8.4268700000	   7.4756900000
H	  13.1407000000	   9.9037400000	   6.2952600000
H	  12.9626000000	   9.8910800000	   4.5381100000
H	  16.1744000000	  13.1337000000	   4.1468800000
H	  17.5042000000	  13.4614000000	   5.1216400000
