66

Li	  26.8116000000	  17.5744000000	   2.3745900000
P	  28.3375000000	  15.4612000000	   1.4143600000
F	  27.9183000000	  15.5398000000	  -1.9759736622
F	  26.8881000000	  17.3911000000	  -2.3854736622
F	  28.5326000000	  17.3230000000	  -0.9159736622
F	  31.0395000000	  14.9537000000	   2.9988100000
F	  31.0508000000	  17.1486000000	   3.4668600000
F	  31.0483000000	  15.6431000000	   5.0418600000
F	  28.2960000000	  12.2715000000	   0.1398263378
F	  30.0335000000	  12.6182000000	   1.3890900000
F	  28.7213000000	  10.9148000000	   1.7594900000
O	  27.1257000000	  16.5506000000	   0.8864263378
O	  28.2159000000	  16.2830000000	   2.8782300000
O	  27.3362000000	  14.2713000000	   2.0189300000
C	  26.5032000000	  16.3514000000	  -0.3175736622
C	  29.0945000000	  16.0286000000	   4.0351500000
C	  27.8463000000	  12.9930000000	   2.3686700000
C	  27.5033000000	  16.6779000000	  -1.4534736622
C	  30.6141000000	  15.9733000000	   3.8305100000
C	  28.7674000000	  12.1977000000	   1.3531900000
H	  26.2704000000	  15.3150000000	  -0.3757736622
H	  25.5455000000	  16.9820000000	  -0.3222736622
H	  28.8613000000	  16.8014000000	   4.6888800000
H	  28.8372000000	  15.0409000000	   4.4243600000
H	  28.4779000000	  13.1782000000	   3.2479300000
H	  27.0888000000	  12.3013000000	   2.8094400000
P	  24.1893000000	  17.9676000000	   2.8276300000
F	  20.7047000000	  18.7062000000	   5.4669000000
F	  21.6118000000	  20.3022000000	   4.4951000000
F	  21.5144000000	  18.3579000000	   3.5289200000
F	  23.2359000000	  20.8272000000	   2.3617200000
F	  23.6749000000	  21.6957000000	   0.4914263378
F	  23.0937000000	  19.6568000000	   0.5990263378
F	  22.9536000000	  15.2653000000	   3.8112600000
F	  24.4975000000	  14.8134000000	   2.2879000000
F	  24.4247000000	  13.7098000000	   4.2181800000
O	  24.0764000000	  18.6248000000	   4.3630600000
O	  25.3874000000	  18.8260000000	   1.9826300000
O	  25.4390000000	  17.0227000000	   3.4497300000
C	  23.0154000000	  18.5877000000	   5.2753800000
C	  25.2088000000	  20.1926000000	   1.4340500000
C	  25.1818000000	  15.8690000000	   4.2088300000
C	  21.6776000000	  18.9885000000	   4.6729000000
C	  23.8226000000	  20.6071000000	   1.1913263378
C	  24.2047000000	  14.8407000000	   3.5922300000
H	  22.8938000000	  17.5172000000	   5.5382200000
H	  23.2080000000	  19.1622000000	   6.1938100000
H	  25.5933000000	  20.7747000000	   2.2251900000
H	  25.8151000000	  20.2689000000	   0.5182263378
H	  26.1686000000	  15.4843000000	   4.4294600000
H	  24.8563000000	  16.1521000000	   5.1690400000
N	  29.7790000000	  20.1948000000	   3.0318300000
S	  28.9529000000	  20.1144000000	   4.3973200000
O	  27.5551000000	  19.8722000000	   4.3013000000
O	  29.6720000000	  19.3439000000	   5.3742800000
C	  29.0152000000	  21.8970000000	   4.8887000000
F	  28.5899000000	  22.0705000000	   6.1252200000
F	  28.3018000000	  22.6600000000	   4.0705400000
F	  30.2361000000	  22.3295000000	   4.8318100000
S	  29.3155000000	  19.6851000000	   1.6232000000
O	  28.1262000000	  18.9598000000	   1.4830600000
O	  30.4203000000	  19.2452000000	   0.7799263378
C	  28.8430000000	  21.2494000000	   0.8435263378
F	  29.7896000000	  22.1879000000	   0.9146263378
F	  28.6649000000	  21.0652000000	  -0.4362736622
F	  27.6908000000	  21.7252000000	   1.3317263378
