24

Li	  52.1890000000	  22.6670000000	   3.4542900000
N	  50.5736000000	  24.5501000000	  -0.1236736622
S	  49.7920000000	  25.7662000000	  -0.5547736622
O	  48.6394000000	  26.0772000000	   0.2612263378
O	  50.6071000000	  26.8999000000	  -0.8782736622
C	  49.2107000000	  25.2957000000	  -2.1585736622
F	  50.1254000000	  25.0882000000	  -3.0693736622
F	  48.2998000000	  26.2254000000	  -2.6757736622
F	  48.5078000000	  24.1345000000	  -2.0339736622
S	  50.2500000000	  23.6069000000	   1.0924263378
O	  48.9962000000	  23.7630000000	   1.7570100000
O	  51.4487000000	  23.4091000000	   1.8523600000
C	  50.0286000000	  21.9971000000	   0.3178263378
F	  49.5616000000	  21.1675000000	   1.2449263378
F	  49.1206000000	  21.9037000000	  -0.6492736622
F	  51.1823000000	  21.4424000000	  -0.1720736622
S	  51.1520000000	  22.6624000000	   5.3907400000
S	  49.8801000000	  21.3038000000	   4.5605300000
S	  50.5952000000	  19.4411000000	   4.2355200000
S	  54.2802000000	  21.5046000000	   2.2771100000
S	  54.5526000000	  22.6629000000	   3.9771300000
S	  53.6926000000	  24.4961000000	   3.6815100000
S	  53.5664000000	  19.5978000000	   2.8756800000
S	  51.5902000000	  19.2855000000	   2.3962800000
