28

Li	  13.8986000000	  26.8262000000	  24.1321000000
O	  14.8344000000	  26.2859000000	  25.6362000000
O	  15.2707000000	  24.9447000000	  27.4183000000
C	  16.0310000000	  26.8238000000	  26.1592000000
C	  16.4969000000	  25.5906000000	  27.0638000000
C	  14.2141000000	  25.6000000000	  26.7277000000
H	  16.6977000000	  27.1742000000	  25.3132000000
H	  15.9371000000	  27.6981000000	  26.8600000000
H	  17.0706000000	  24.9131000000	  26.3828000000
H	  16.9571000000	  25.8070000000	  27.9643000000
H	  13.8549000000	  26.3018000000	  27.5251000000
H	  13.4567000000	  24.9046000000	  26.4136000000
S	  11.9956000000	  26.0475000000	  23.7000000000
S	  11.1268000000	  26.8704000000	  22.0521000000
S	  12.5095000000	  26.8825000000	  20.3374000000
S	  15.0626000000	  23.3548000000	  17.6547000000
S	  14.3303000000	  21.4775000000	  16.8679000000
S	  13.2331000000	  20.0767000000	  18.3020000000
S	  13.6627000000	  24.9200000000	  17.4551000000
S	  12.3678000000	  25.1235000000	  19.1586000000
S	  15.0287000000	  27.8197000000	  22.4925000000
S	  15.0130000000	  29.3697000000	  23.9116000000
S	  13.0656000000	  29.7531000000	  24.5282000000
S	  10.7648000000	  31.2915000000	  28.7802000000
S	  10.6314000000	  30.7364000000	  30.8209000000
S	  10.7163000000	  32.2632000000	  32.2785000000
S	  12.5679000000	  31.0193000000	  27.8559000000
S	  12.7170000000	  29.4038000000	  26.5916000000
