51

Li	  27.4741000000	  11.6448000000	  15.2832000000
P	  25.8627000000	  13.0422000000	  13.8318000000
F	  23.6085000000	  11.2856000000	  13.0689000000
F	  22.3664000000	  10.5878000000	  14.8019000000
F	  22.9171000000	  12.6965000000	  14.6044000000
F	  29.0548000000	  14.8289000000	  15.0824000000
F	  27.6481000000	  15.5750000000	  13.6394000000
F	  27.9367000000	  16.7450000000	  15.4911000000
F	  25.6715000000	  12.5880000000	  10.6684000000
F	  27.3949000000	  11.6665000000	   9.8128500000
F	  26.4390000000	  10.7496000000	  11.5808000000
O	  25.7605000000	  11.5349000000	  14.5773000000
O	  26.5792000000	  13.4253000000	  15.3177000000
O	  27.3551000000	  12.6986000000	  13.2648000000
C	  24.5580000000	  11.0790000000	  15.2203000000
C	  26.8007000000	  14.7992000000	  15.6298000000
C	  27.6561000000	  12.7481000000	  11.8456000000
C	  23.3059000000	  11.4420000000	  14.3696000000
C	  27.9572000000	  15.5134000000	  14.9288000000
C	  26.7377000000	  11.8998000000	  10.9661000000
H	  24.6873000000	  10.0060000000	  15.2919000000
H	  24.5841000000	  11.4900000000	  16.2126000000
H	  25.9623000000	  15.4972000000	  15.5064000000
H	  27.0264000000	  14.8588000000	  16.7601000000
H	  27.6190000000	  13.7729000000	  11.5066000000
H	  28.7316000000	  12.4654000000	  11.8009000000
P	  29.8087000000	  10.4860000000	  15.6129000000
F	  29.1218000000	  10.0087000000	  12.2734000000
F	  30.5904000000	   8.7169600000	  13.3742000000
F	  29.0082000000	   7.9514900000	  12.2149000000
F	  33.7289000000	  12.3176000000	  14.4979000000
F	  32.6868000000	  11.1193000000	  16.0458000000
F	  32.7902000000	  10.3972000000	  13.9918000000
F	  30.1222000000	  11.8649000000	  19.8356000000
F	  29.0047000000	  10.2916000000	  18.7293000000
F	  31.1102000000	  10.7340000000	  18.4094000000
O	  28.3803000000	   9.9644700000	  15.0247000000
O	  30.2259000000	  11.3870000000	  14.3225000000
O	  28.9106000000	  11.6934000000	  16.4167000000
C	  28.3456000000	   8.8554000000	  14.1871000000
C	  31.3635000000	  12.2265000000	  14.3340000000
C	  29.4400000000	  12.3109000000	  17.6086000000
C	  29.3153000000	   8.9161400000	  12.9662000000
C	  32.6426000000	  11.4915000000	  14.7579000000
C	  29.9456000000	  11.3033000000	  18.6490000000
H	  28.4849000000	   8.0220800000	  14.8323000000
H	  27.3005000000	   8.7170300000	  13.7744000000
H	  31.5166000000	  12.6709000000	  13.2913000000
H	  31.2455000000	  13.0191000000	  15.0703000000
H	  30.4072000000	  12.8007000000	  17.3053000000
H	  28.7598000000	  12.9466000000	  18.1058000000
