51

Li	   4.8472600000	  22.2738000000	   5.6407100000
P	   6.2565100000	  23.4455000000	   7.6188300000
F	   8.1443600000	  25.8677000000	   7.4299800000
F	   7.4656200000	  27.3317000000	   5.9291900000
F	   6.2414300000	  26.6792000000	   7.5597400000
F	   4.4956400000	  23.5352000000	  10.3440000000
F	   3.9601000000	  25.0776000000	   8.8497600000
F	   2.4746900000	  23.9881000000	   9.8696100000
F	   8.3389700000	  19.5482000000	   8.6275800000
F	   7.4211300000	  21.2765000000	   9.3635100000
F	   6.1829500000	  19.9672000000	   7.9924900000
O	   5.7627200000	  24.2750000000	   6.3095100000
O	   4.8500200000	  22.5898000000	   7.4782200000
O	   7.1259300000	  22.4353000000	   6.6089300000
C	   6.7154300000	  25.1732000000	   5.8090800000
C	   3.7087100000	  22.8097000000	   8.2172500000
C	   7.9342200000	  21.3007000000	   7.0101600000
C	   7.1304300000	  26.2706000000	   6.6881700000
C	   3.6562700000	  23.8612000000	   9.3019500000
C	   7.3918800000	  20.5264000000	   8.3087200000
H	   7.5160500000	  24.7287000000	   5.3810700000
H	   6.0848600000	  25.5955000000	   5.0595700000
H	   2.9058300000	  22.9354000000	   7.5313200000
H	   3.4331900000	  21.8432000000	   8.6738100000
H	   8.0179400000	  20.5536000000	   6.1934500000
H	   8.8698800000	  21.7150000000	   7.2160700000
P	   3.9111100000	  21.2293000000	   3.5886600000
F	   0.6276469614	  21.6295000000	   5.3353000000
F	  -0.1617530386	  23.2865000000	   4.1445000000
F	   0.6933469614	  21.4863000000	   3.1621300000
F	   6.0852900000	  19.9341000000	   2.2420300000
F	   8.0960900000	  20.4826000000	   2.4228900000
F	   7.1990100000	  19.9612000000	   4.2051500000
F	   2.1934000000	  18.6152000000	   4.7058100000
F	   3.3071500000	  18.4453000000	   2.8861100000
F	   3.4560900000	  16.8494000000	   4.3172700000
O	   3.1806900000	  22.2622000000	   4.7099200000
O	   5.2210600000	  22.2704000000	   3.7827300000
O	   4.4641800000	  20.2830000000	   4.8887500000
C	   2.0907800000	  23.0831000000	   4.3072000000
C	   6.5309500000	  22.1089000000	   3.1336200000
C	   4.5129600000	  18.8534000000	   4.7330300000
C	   0.7637469614	  22.3109000000	   4.2364700000
C	   6.9435900000	  20.5928000000	   3.0254200000
C	   3.3296500000	  18.1336000000	   4.1358600000
H	   2.0240300000	  23.9194000000	   4.9607700000
H	   2.1522600000	  23.4354000000	   3.2921200000
H	   6.4210400000	  22.5631000000	   2.1641800000
H	   7.1325000000	  22.7305000000	   3.7277900000
H	   5.3462400000	  18.5199000000	   4.1549600000
H	   4.6996900000	  18.3841000000	   5.7682500000
