49

Li	  43.7799000000	  41.6915000000	  49.4880000000
P	  46.2590000000	  42.6010000000	  50.4334000000
F	  50.0600000000	  41.7149000000	  47.9295000000
F	  49.2014000000	  42.9045000000	  49.4722000000
F	  49.8033000000	  40.8737000000	  49.8937000000
F	  47.1797000000	  45.0401000000	  49.4536000000
F	  46.0324000000	  46.8065000000	  49.3598000000
F	  46.0245000000	  45.5340000000	  51.1195000000
F	  45.5109000000	  39.5450000000	  53.6682000000
F	  47.0968000000	  40.3927000000	  52.6416000000
F	  45.7003000000	  41.7288000000	  53.7064000000
O	  46.8710000000	  41.2288000000	  49.6827000000
O	  45.3479000000	  43.2429000000	  49.1880000000
O	  44.8413000000	  41.8181000000	  50.9383000000
C	  47.8471000000	  41.2775000000	  48.6188000000
C	  44.9547000000	  44.5991000000	  49.2179000000
C	  44.9068000000	  40.6832000000	  51.7623000000
C	  49.2757000000	  41.6825000000	  49.0150000000
C	  46.0131000000	  45.5138000000	  49.7840000000
C	  45.8388000000	  40.5711000000	  53.0194000000
H	  47.9104000000	  40.3503000000	  48.1469000000
H	  47.4788000000	  41.9294000000	  47.8574000000
H	  44.7737000000	  44.7681000000	  48.1706000000
H	  43.9945000000	  44.6690000000	  49.7133000000
H	  43.9182000000	  40.5338000000	  52.2577000000
H	  44.9911000000	  39.8018000000	  51.1219000000
N	  43.5793000000	  40.0146000000	  46.3197000000
S	  43.4208000000	  39.1857000000	  47.6054000000
O	  43.8527000000	  39.8661000000	  48.8060000000
O	  42.1652000000	  38.4947000000	  47.6065000000
C	  44.8031000000	  37.9910000000	  47.2715000000
F	  46.0230000000	  38.4182000000	  47.4521000000
F	  44.8156000000	  37.5385000000	  46.0545000000
F	  44.7070000000	  36.9540000000	  48.1088000000
S	  43.4281000000	  41.5465000000	  46.1952000000
O	  43.4946000000	  42.2701000000	  47.4244000000
O	  42.3981000000	  41.8953000000	  45.2593000000
C	  44.9699000000	  41.9447000000	  45.2593000000
F	  44.9546000000	  41.3777000000	  44.0754000000
F	  45.1746000000	  43.2695000000	  45.1602000000
F	  46.0385000000	  41.3847000000	  45.8744000000
S	  41.9377000000	  43.0124000000	  50.2561000000
S	  40.9582000000	  41.1338000000	  49.9964000000
S	  41.0316000000	  39.7173000000	  51.5031000000
S	  42.4272000000	  34.8753000000	  49.8083000000
S	  41.4717000000	  34.3077000000	  48.0336000000
S	  42.2414000000	  35.4874000000	  46.3818000000
S	  41.4734000000	  36.1762000000	  51.1276000000
S	  42.3297000000	  38.0729000000	  51.2463000000
