48

Li	  32.1025000000	  53.6526000000	  50.8850000000
O	  31.3236000000	  52.2154000000	  51.6802000000
O	  31.1881000000	  50.1144000000	  52.5545000000
C	  30.4122000000	  51.5616000000	  50.8789000000
C	  30.5208000000	  50.1198000000	  51.3566000000
C	  31.2266000000	  51.4952000000	  52.9083000000
H	  29.3335000000	  51.7830000000	  51.1073000000
H	  30.6808000000	  51.8578000000	  49.8498000000
H	  29.5156000000	  49.7227000000	  51.4675000000
H	  31.0831000000	  49.4855000000	  50.7049000000
H	  32.1392000000	  51.7242000000	  53.4751000000
H	  30.2516000000	  51.8662000000	  53.4208000000
O	  30.1269000000	  54.6982000000	  50.4717000000
O	  29.9333000000	  56.9480000000	  50.2457000000
C	  29.4000000000	  55.1025000000	  51.6014000000
C	  29.6190000000	  56.6556000000	  51.6144000000
C	  29.9805000000	  55.7243000000	  49.6036000000
H	  28.3744000000	  54.9126000000	  51.5391000000
H	  29.9348000000	  54.6026000000	  52.4456000000
H	  28.7336000000	  57.2411000000	  51.8539000000
H	  30.5298000000	  56.8672000000	  52.1683000000
H	  30.6424000000	  55.8487000000	  48.7622000000
H	  29.0065000000	  55.5789000000	  49.1116000000
P	  34.2058000000	  54.4721000000	  49.8529000000
F	  36.8233000000	  53.0805000000	  49.7746000000
F	  36.7259000000	  54.2518000000	  51.5636000000
F	  37.4056000000	  52.2015000000	  51.6008000000
F	  34.1756000000	  54.5444000000	  46.8373000000
F	  34.4937000000	  52.4108000000	  47.2337000000
F	  32.9814000000	  53.1822000000	  45.8553000000
F	  35.3691000000	  57.1411000000	  49.8326000000
F	  33.2668000000	  57.1821000000	  49.1332000000
F	  34.0072000000	  58.7117906887	  50.4827000000
O	  34.0862000000	  52.9115000000	  50.3888000000
O	  32.6638000000	  54.3007000000	  49.1985000000
O	  33.6638000000	  55.2221000000	  51.2355000000
C	  35.1654000000	  52.4032000000	  51.2225000000
C	  32.4860000000	  53.4710000000	  48.0281000000
C	  33.6655000000	  56.6205000000	  51.4501000000
C	  36.5388000000	  52.9973000000	  51.0428000000
C	  33.5638000000	  53.3482000000	  47.0168000000
C	  34.0624000000	  57.4125000000	  50.1875000000
H	  34.9575000000	  52.5502000000	  52.3011000000
H	  35.2605000000	  51.3496000000	  50.9680000000
H	  32.2960000000	  52.4381000000	  48.4100000000
H	  31.6257000000	  53.7433000000	  47.5063000000
H	  32.7600000000	  57.0158000000	  51.8716000000
H	  34.3006000000	  56.8340000000	  52.2782000000
