53

Li	   5.3705400000	  20.9044000000	  24.5967000000
O	   4.6240500000	  20.3890000000	  26.2536000000
O	   3.7415200000	  20.6570000000	  23.6292000000
C	   0.8935350000	  21.1621000000	  25.9801000000
C	   2.3589100000	  21.4563000000	  26.2953000000
C	   3.2156200000	  20.2235000000	  25.9981000000
C	   0.1826410578	  20.1236000000	  26.8406000000
C	   0.0247410578	  22.4443000000	  26.3070000000
C	   3.2447200000	  19.7055000000	  24.5440000000
H	   0.7087410578	  20.9716000000	  24.8933000000
H	   2.3128200000	  21.6963000000	  27.3742000000
H	   2.6613800000	  22.4144000000	  25.7933000000
H	   2.8103200000	  19.4724000000	  26.6868000000
H	  -0.0709589422	  20.3670000000	  27.8314000000
H	  -0.6992589422	  19.7783000000	  26.4090000000
H	   0.7857410578	  19.2410000000	  27.0171000000
H	  -0.8496589422	  22.5117000000	  25.6541000000
H	  -0.2513589422	  22.4523000000	  27.3312000000
H	   0.5796410578	  23.3722000000	  26.1475000000
H	   3.7618400000	  18.7537000000	  24.3814000000
H	   2.2638500000	  19.5022000000	  24.1648000000
H	   4.7229100000	  20.5161000000	  27.2398000000
H	   3.5745700000	  20.3218000000	  22.7075000000
N	   4.7496700000	  18.5001000000	  21.6341000000
S	   6.1825100000	  18.6042000000	  22.2302000000
O	   6.1759700000	  19.1932000000	  23.5684000000
O	   7.0804300000	  17.5611000000	  21.9817000000
C	   6.8275800000	  19.9890000000	  21.2349000000
F	   6.6737300000	  19.7607000000	  19.9138000000
F	   8.1648600000	  20.0650000000	  21.3766000000
F	   6.3556000000	  21.1787000000	  21.5381000000
S	   3.6885900000	  17.3181000000	  21.6838000000
O	   2.3407500000	  17.6107000000	  22.0500000000
O	   4.3010400000	  16.1277000000	  22.2729000000
C	   3.7141900000	  17.0607000000	  19.8724000000
F	   3.0414000000	  15.9508000000	  19.5871000000
F	   3.0795400000	  18.0879000000	  19.3395000000
F	   4.9210000000	  17.0269000000	  19.3033000000
N	   7.4234800000	  24.6050000000	  23.7829000000
S	   6.1448100000	  24.1010000000	  24.5020000000
O	   5.8309400000	  22.7048000000	  24.3226000000
O	   5.8393600000	  24.7678000000	  25.7483000000
C	   4.8583700000	  24.7217000000	  23.2946000000
F	   3.7318800000	  24.0242000000	  23.4363000000
F	   5.2428200000	  24.6604000000	  22.0335000000
F	   4.5211000000	  25.9746000000	  23.5440000000
S	   8.7633600000	  23.9014000000	  23.2564000000
O	   8.6050100000	  22.4776000000	  23.0253000000
O	   9.9280500000	  24.4239000000	  23.9414000000
C	   8.9661200000	  24.5971000000	  21.5663000000
F	   9.9248300000	  24.0477000000	  20.8779000000
F	   7.8671000000	  24.6263000000	  20.7858000000
F	   9.2623000000	  25.8698000000	  21.7287000000
