31

Li	  26.7314000000	   3.2050100000	  28.0563000000
O	  26.1138000000	   1.9095800000	  26.8895000000
O	  28.4033000000	   2.3004700000	  28.2155000000
C	  28.3300000000	   2.6022100000	  23.9961000000
C	  27.4191000000	   2.8914700000	  25.1643000000
C	  27.2885000000	   1.7010000000	  26.1163000000
C	  27.6387000000	   1.6599200000	  22.9660000000
C	  28.6368000000	   3.9745500000	  23.3302000000
C	  28.4626000000	   1.4485900000	  27.0459000000
H	  29.2914000000	   2.2185300000	  24.2957000000
H	  26.4683000000	   3.2849600000	  24.7179000000
H	  27.7760000000	   3.7828400000	  25.7319000000
H	  27.1461000000	   0.7352723519	  25.6083000000
H	  27.5768000000	   0.6771723519	  23.3117000000
H	  26.6132000000	   1.9455300000	  22.7599000000
H	  28.2765000000	   1.6926000000	  22.1259000000
H	  27.6476000000	   4.4550500000	  23.1175000000
H	  29.3284000000	   4.5645000000	  23.9461000000
H	  29.1374000000	   3.8332100000	  22.4276000000
H	  28.5298000000	   0.4054723519	  27.2026000000
H	  29.3933000000	   1.5912900000	  26.5636000000
H	  25.6742000000	   1.0614500000	  27.1008000000
H	  29.2519000000	   2.0907700000	  28.5649000000
S	  28.2963000000	  11.1587000000	  31.0183000000
S	  26.1542000000	  11.5156000000	  31.0492000000
S	  25.3305000000	  11.3624000000	  29.1702000000
S	  26.1163000000	   7.0689700000	  28.0548000000
S	  25.4464000000	   5.0708300000	  28.2027000000
S	  25.9921000000	   4.1763300000	  29.9297000000
S	  24.7045000000	   8.3909700000	  27.2325000000
S	  24.0303000000	   9.7192300000	  28.7932000000
