45

Li	  29.9725000000	  33.9293000000	   1.3490600000
O	  26.5822000000	  32.4758000000	   5.1973800000
O	  28.4861000000	  33.0842000000	   2.1493300000
C	  26.1129000000	  35.3932000000	   4.9678800000
C	  27.2405000000	  34.5946000000	   4.3760100000
C	  26.9733000000	  33.1869000000	   4.0428500000
C	  26.6407000000	  36.7350000000	   5.5243800000
C	  24.9128000000	  35.7267000000	   4.0019300000
C	  28.1194000000	  32.4613000000	   3.3775500000
H	  25.6323000000	  34.8824000000	   5.7350500000
H	  28.0059000000	  34.4869000000	   5.1668600000
H	  27.6917000000	  35.1317000000	   3.5515100000
H	  26.1288000000	  33.0654000000	   3.3253300000
H	  27.3594000000	  36.4933000000	   6.3115600000
H	  27.0779000000	  37.3178000000	   4.7895600000
H	  25.9520000000	  37.3538000000	   5.9989100000
H	  24.5900000000	  34.8858000000	   3.4033800000
H	  24.1245000000	  36.1265000000	   4.6427600000
H	  25.2143000000	  36.5054000000	   3.2476100000
H	  28.9836000000	  32.5445000000	   3.9761700000
H	  27.8603000000	  31.3893000000	   3.2342300000
H	  26.9669000000	  32.9411000000	   5.9590900000
H	  27.7144000000	  32.9467000000	   1.6319100000
O	  31.4749000000	  30.0663000000	   0.3287554826
O	  31.0320000000	  32.5683000000	   0.5923554826
C	  28.7236000000	  30.9725000000	  -2.2499445174
C	  29.4932000000	  30.5518000000	  -0.9066445174
C	  30.9771000000	  30.7913000000	  -0.8539445174
C	  29.1591000000	  30.2375000000	  -3.4420445174
C	  27.2645000000	  30.8656000000	  -2.0175445174
C	  31.3548000000	  32.2450000000	  -0.6722445174
H	  28.9348000000	  32.0670000000	  -2.3880445174
H	  29.3193000000	  29.4794000000	  -0.8029445174
H	  28.9763000000	  30.9485000000	  -0.0545445174
H	  31.4722000000	  30.4266000000	  -1.7127445174
H	  30.2485000000	  30.2798000000	  -3.6784445174
H	  29.0304000000	  29.1642000000	  -3.3464445174
H	  28.8664000000	  30.6497000000	  -4.3894445174
H	  26.9323000000	  31.5272000000	  -1.2803445174
H	  26.7907000000	  31.0473000000	  -2.9573445174
H	  26.9194000000	  29.8604000000	  -1.6217445174
H	  32.4012000000	  32.4462000000	  -0.8165445174
H	  30.8030000000	  32.9039000000	  -1.3198445174
H	  31.3147000000	  29.1466000000	   0.2505554826
H	  31.1340000000	  31.6738000000	   0.9600980000
