67

Li	  13.7790000000	  50.3220000000	  25.9390000000
O	  12.7518000000	  51.2162000000	  24.6419000000
O	  11.8430000000	  53.4135000000	  23.5341000000
C	   9.8600800000	  49.5149000000	  22.7733000000
C	  10.6155000000	  50.0009000000	  24.0769000000
C	  11.6449000000	  51.1111000000	  23.7528000000
C	  10.8084000000	  48.7416000000	  21.7860000000
C	   8.8180900000	  48.5763000000	  23.2592000000
C	  10.8511000000	  52.4739000000	  23.8869000000
H	   9.2476900000	  50.3675000000	  22.4681000000
H	  11.2013000000	  49.0631000000	  24.4657000000
H	  10.0442000000	  50.3973000000	  24.8804000000
H	  12.0803000000	  51.0692000000	  22.7285000000
H	  10.2850000000	  48.2793000000	  20.8996000000
H	  11.4470000000	  49.4647000000	  21.2891000000
H	  11.4595000000	  47.9799000000	  22.2363000000
H	   8.0960300000	  49.1369000000	  23.8399000000
H	   8.4545600000	  48.1238000000	  22.3816000000
H	   9.2561200000	  47.8388000000	  23.8629000000
H	  10.0310000000	  52.5409000000	  23.1574000000
H	  10.5712000000	  52.7236000000	  24.9673000000
H	  13.0919000000	  52.1065000000	  24.5146000000
H	  11.5801000000	  53.7532000000	  22.6530000000
O	  17.6962000000	  49.6345000000	  24.3337000000
O	  15.5404000000	  50.4052000000	  25.4797000000
C	  16.6369000000	  47.6651000000	  22.1435000000
C	  15.8710000000	  48.8728000000	  22.8063000000
C	  16.6968000000	  50.0452000000	  23.4246000000
C	  15.7802000000	  46.4522000000	  21.7363000000
C	  17.4574000000	  48.1749000000	  20.9649000000
C	  15.8685000000	  51.0173000000	  24.2716000000
H	  17.4050000000	  47.2676000000	  22.8819000000
H	  15.2733000000	  48.4534000000	  23.5899000000
H	  15.1775000000	  49.3567000000	  22.0805000000
H	  17.2003000000	  50.6514000000	  22.6762000000
H	  16.4295000000	  45.5860000000	  21.6047000000
H	  15.1722000000	  46.1322000000	  22.4953000000
H	  15.2125000000	  46.6115000000	  20.7858000000
H	  16.7800000000	  48.5578000000	  20.1842000000
H	  18.0287000000	  49.0635000000	  21.1558000000
H	  18.1353000000	  47.4057000000	  20.6068000000
H	  16.4616000000	  51.8779000000	  24.5328000000
H	  15.0718000000	  51.3026000000	  23.6277000000
H	  18.4546000000	  50.1663000000	  24.1754000000
H	  16.3091000000	  49.8618000000	  25.5575000000
O	  12.9367000000	  51.1796000000	  30.0173000000
O	  13.1879000000	  50.3828000000	  27.6112000000
C	  11.3225000000	  47.9282000000	  30.9664000000
C	  11.3547000000	  49.4003000000	  30.7153000000
C	  12.4638000000	  49.8377000000	  29.7316000000
C	  10.3208000000	  47.4857000000	  32.0384000000
C	  10.9647000000	  47.0612000000	  29.7172000000
C	  12.0879000000	  49.8415000000	  28.1955000000
H	  12.2857000000	  47.6323000000	  31.3459000000
H	  11.4965000000	  49.8910000000	  31.7231000000
H	  10.3545000000	  49.8118000000	  30.3781000000
H	  13.3678000000	  49.2191000000	  29.8997000000
H	  10.3139000000	  48.0325000000	  32.9515000000
H	   9.2818100000	  47.6052000000	  31.6724000000
H	  10.2201000000	  46.4437000000	  32.3333000000
H	  10.1234000000	  47.5116000000	  29.2252000000
H	  11.7392000000	  46.9718000000	  28.9452000000
H	  10.6875000000	  46.0080000000	  29.9659000000
H	  11.9935000000	  48.7907000000	  27.8482000000
H	  11.1862000000	  50.3215000000	  27.9363000000
H	  12.2008000000	  51.5254000000	  30.4279000000
H	  13.5856000000	  50.8890000000	  28.3335000000
