67

Li	  32.2571000000	  12.8770000000	  12.9359000000
O	  29.8610000000	  11.1928000000	  15.8792000000
O	  31.3328000000	  12.6831000000	  14.7442000000
C	  30.6184000000	  10.7498000000	  18.7028000000
C	  31.1227000000	  11.8511000000	  17.7736000000
C	  30.1396000000	  12.2963000000	  16.7688000000
C	  31.7345000000	   9.8854700000	  19.3174000000
C	  29.6563000000	  11.4180000000	  19.7111000000
C	  30.6775000000	  13.3887000000	  15.7757000000
H	  30.1370000000	  10.0651000000	  17.9968000000
H	  31.9995000000	  11.5536000000	  17.1651000000
H	  31.4159000000	  12.7038000000	  18.2742000000
H	  29.1373000000	  12.6200000000	  17.1215000000
H	  32.3558000000	  10.3413000000	  20.1603000000
H	  31.3125000000	   8.9836900000	  19.7148000000
H	  32.3372000000	   9.4647900000	  18.4810000000
H	  29.3564000000	  12.3889000000	  19.3593000000
H	  28.7733000000	  10.7739000000	  19.9154000000
H	  30.2262000000	  11.5517000000	  20.6125000000
H	  29.8050000000	  13.8918000000	  15.3965000000
H	  31.3440000000	  14.1548000000	  16.2206000000
H	  29.1767000000	  10.6006000000	  16.2435000000
H	  30.8972000000	  11.8352000000	  14.9399000000
O	  30.4924000000	  16.3522000000	  10.5123000000
O	  31.4698000000	  14.2413000000	  11.7304000000
C	  29.3091000000	  14.6064000000	   7.9282000000
C	  30.0624000000	  14.3001000000	   9.2142400000
C	  29.7996000000	  15.1055000000	  10.5101000000
C	  29.6095000000	  16.0177000000	   7.4144700000
C	  29.4896000000	  13.4794000000	   6.9300900000
C	  30.1195000000	  14.3810000000	  11.8243000000
H	  28.2598000000	  14.5608000000	   8.1312100000
H	  31.1520000000	  14.3612000000	   9.0672500000
H	  29.9254000000	  13.2150000000	   9.4347600000
H	  28.7983000000	  15.4755000000	  10.5412000000
H	  30.6853000000	  16.1536000000	   7.1453600000
H	  28.9513000000	  16.1007000000	   6.6200500000
H	  29.2744000000	  16.7734000000	   8.1135500000
H	  28.8880000000	  13.5466000000	   6.1052300000
H	  30.5655000000	  13.3636000000	   6.5566600000
H	  29.2821000000	  12.5202000000	   7.4237700000
H	  30.0298000000	  14.8646000000	  12.7908000000
H	  29.5203000000	  13.4360000000	  11.9602000000
H	  30.3824000000	  16.7982000000	  11.3690000000
H	  31.6970000000	  14.9724000000	  11.1045000000
O	  32.3643000000	  11.3158000000	  11.8391000000
O	  34.1264000000	  13.0754000000	  13.1340000000
C	  33.4671000000	  11.2674000000	   8.9701500000
C	  33.9639000000	  12.0198000000	  10.1250000000
C	  33.7644000000	  11.2613000000	  11.4667000000
C	  33.4118000000	  12.0432000000	   7.6660800000
C	  34.3635000000	  10.0341000000	   8.6099400000
C	  34.5626000000	  11.7815000000	  12.7072000000
H	  32.5852000000	  10.7647000000	   9.1083900000
H	  33.5636000000	  12.9840000000	  10.2540000000
H	  35.0472000000	  12.2520000000	  10.0153000000
H	  34.0707000000	  10.2505000000	  11.4023000000
H	  33.2994000000	  11.3582000000	   6.8608400000
H	  32.5339000000	  12.7561000000	   7.6056700000
H	  34.2856000000	  12.5786000000	   7.4431400000
H	  34.5771000000	   9.3356000000	   9.4181500000
H	  33.8773000000	   9.4047200000	   7.7734300000
H	  35.2324000000	  10.4377000000	   8.2907200000
H	  34.2895000000	  11.0671000000	  13.4820000000
H	  35.7187000000	  11.6898000000	  12.6163000000
H	  31.8395000000	  10.9578000000	  11.1360000000
H	  34.7998000000	  13.7461000000	  13.0243000000
