42

Li	  39.1208000000	  41.2163000000	  49.9811000000
O	  37.4161000000	  41.0848000000	  49.0191000000
O	  36.3337000000	  42.1163000000	  47.3284000000
C	  37.4794000000	  40.2970000000	  47.8588000000
C	  37.3859000000	  41.3972000000	  46.7510000000
C	  36.3948000000	  41.9693000000	  48.7524000000
H	  38.3873000000	  39.7603000000	  47.8184000000
H	  36.6876000000	  39.5497000000	  47.8422000000
H	  38.3155000000	  41.9857000000	  46.8233000000
H	  37.2514000000	  41.0212000000	  45.7566000000
H	  35.3985000000	  41.7607000000	  49.1579000000
H	  36.7043000000	  42.9214000000	  49.2240000000
O	  39.7076000000	  42.9126000000	  49.0465000000
O	  40.6752000000	  40.4520000000	  49.3385000000
C	  42.1363000000	  44.5210000000	  49.5709000000
C	  42.0707000000	  43.0034000000	  49.3834000000
C	  40.9692000000	  42.5840000000	  48.4182000000
C	  43.0898000000	  44.8491000000	  50.7194000000
C	  42.5201000000	  45.2227000000	  48.2546000000
C	  41.0656000000	  41.0840000000	  48.1825000000
H	  41.2143000000	  44.9045000000	  49.8572000000
H	  41.9274000000	  42.5002000000	  50.3395000000
H	  43.0058000000	  42.7036000000	  48.9888000000
H	  40.9498000000	  43.0541000000	  47.4634000000
H	  43.1528000000	  45.8748000000	  50.9734000000
H	  42.7421000000	  44.3757000000	  51.6311000000
H	  44.1442000000	  44.3728000000	  50.5749000000
H	  42.4328000000	  46.2594000000	  48.5009000000
H	  43.5024000000	  45.0195000000	  47.8905000000
H	  41.7861000000	  45.2153000000	  47.3865000000
H	  40.5879000000	  40.6844000000	  47.2728000000
H	  42.1337000000	  40.8471000000	  47.9381000000
H	  39.3535000000	  43.8022000000	  48.8671000000
H	  40.8361000000	  39.5158000000	  49.2339000000
S	  38.9685000000	  40.0515000000	  51.8745000000
S	  38.2917000000	  42.0007000000	  51.9474000000
S	  36.5481000000	  42.2874000000	  53.3047000000
S	  35.0233000000	  39.0571000000	  51.1513000000
S	  34.0008000000	  37.1664000000	  50.9463000000
S	  34.6497000000	  35.9259000000	  52.4332000000
S	  34.0138000000	  40.1448000000	  52.5499000000
S	  34.7336000000	  42.1723000000	  52.2651000000
