42

Li	  31.0594000000	  48.7490000000	  35.3086000000
O	  28.4300000000	  51.5776000000	  34.4708000000
O	  29.6486000000	  50.2153000000	  35.7635000000
C	  27.6795000000	  50.3886000000	  34.7731000000
C	  28.3003000000	  49.7091000000	  35.9778000000
C	  29.5299000000	  51.5151000000	  35.2410000000
H	  26.6529000000	  50.5992000000	  34.9233000000
H	  27.8207000000	  49.7500000000	  33.9060000000
H	  27.8773000000	  50.0731000000	  36.9283000000
H	  28.1903000000	  48.6473000000	  36.0658000000
H	  30.4696000000	  51.8642000000	  34.7838000000
H	  29.3595000000	  52.1888000000	  36.1284000000
O	  32.2059000000	  49.8146000000	  34.4323000000
O	  33.5523000000	  50.5345000000	  32.2374000000
C	  35.6804000000	  48.7400000000	  35.7532000000
C	  34.1740000000	  48.6057000000	  35.3570000000
C	  33.6256000000	  49.7088000000	  34.3854000000
C	  35.8215000000	  49.7976000000	  36.8417000000
C	  36.3505000000	  47.4437000000	  36.2097000000
C	  34.1346000000	  49.4328000000	  32.9742000000
H	  36.1548000000	  49.0838000000	  34.9014000000
H	  33.5694000000	  48.5581000000	  36.2489000000
H	  33.9791000000	  47.5843000000	  34.8757000000
H	  33.9977000000	  50.7048000000	  34.6452000000
H	  35.1265000000	  49.5476000000	  37.6971000000
H	  36.8703000000	  49.9771000000	  37.1953000000
H	  35.4831000000	  50.8386000000	  36.4876000000
H	  36.5583000000	  46.8879000000	  35.2892000000
H	  37.3144000000	  47.5889000000	  36.7991000000
H	  35.6328000000	  46.8200000000	  36.7687000000
H	  35.1916000000	  49.4748000000	  32.9067000000
H	  33.7820000000	  48.5355000000	  32.4626000000
H	  31.9902000000	  50.2327000000	  33.5822000000
H	  34.0229000000	  51.3521000000	  32.3559000000
S	  31.0941000000	  47.0021000000	  36.6868000000
S	  30.1403000000	  46.4358000000	  34.9501000000
S	  31.0065000000	  47.2929000000	  33.2312000000
S	  27.4360000000	  46.6704000000	  29.9022000000
S	  25.8479000000	  47.6090000000	  28.8739000000
S	  24.0457000000	  47.2246000000	  29.9073000000
S	  29.3913000000	  47.5031000000	  30.0765000000
S	  29.7514000000	  48.3595000000	  31.9837000000
