68

Li	  25.7023000000	   2.3802600000	   3.7148600000
O	  24.4033000000	   2.9179900000	   4.8953600000
O	  22.8498000000	   3.6381200000	   3.0204700000
C	  24.7272000000	   6.6304600000	   5.2638100000
C	  25.0064000000	   5.1756200000	   4.8412100000
C	  23.8688000000	   4.1818500000	   5.0918800000
C	  24.6895000000	   6.7277100000	   6.7728300000
C	  25.7547000000	   7.5131500000	   4.7185500000
C	  22.5676000000	   4.2814000000	   4.2736800000
H	  23.7861000000	   7.0461500000	   4.9142000000
H	  25.9008000000	   4.8733700000	   5.3460700000
H	  25.1906000000	   5.0628500000	   3.7568600000
H	  23.4695000000	   4.1766100000	   6.0674500000
H	  24.7045000000	   7.7030600000	   7.3061000000
H	  23.8570000000	   6.1945600000	   7.1183700000
H	  25.5215000000	   6.2260700000	   7.2171200000
H	  25.9955000000	   7.2286600000	   3.7156700000
H	  25.3498000000	   8.5009200000	   4.6724000000
H	  26.7259000000	   7.5045500000	   5.1921800000
H	  21.7664000000	   3.7158500000	   4.7715200000
H	  22.2030000000	   5.2447600000	   4.0992000000
H	  23.9817000000	   2.2884800000	   5.4983700000
H	  23.4447000000	   2.9150400000	   3.1221100000
O	  24.5521000000	   1.0084300000	   2.6118500000
O	  25.1793000000	   0.3898723519	   0.1846554826
C	  22.8032000000	  -2.1993276481	   3.1159300000
C	  23.0202000000	  -0.6682276481	   3.0411400000
C	  24.3539000000	  -0.3531276481	   2.3072600000
C	  23.7888000000	  -2.9128276481	   4.1307100000
C	  21.3436000000	  -2.4610276481	   3.4524800000
C	  24.2490000000	  -0.5313276481	   0.7910554826
H	  22.8855000000	  -2.6517276481	   2.0747800000
H	  23.1629000000	  -0.2728276481	   3.9969300000
H	  22.1699000000	  -0.1014276481	   2.6163200000
H	  25.3345000000	  -0.7900276481	   2.5902200000
H	  23.4690000000	  -3.9090276481	   4.3782900000
H	  24.7739000000	  -2.9881276481	   3.7375500000
H	  23.8822000000	  -2.4968276481	   5.1557000000
H	  21.1550000000	  -3.4814276481	   3.5786600000
H	  21.1694000000	  -1.9655276481	   4.4114400000
H	  20.6372000000	  -2.0313276481	   2.7896800000
H	  24.5289000000	  -1.5315276481	   0.4602554826
H	  23.1949000000	  -0.4020276481	   0.5454554826
H	  24.5383000000	   1.4654400000	   1.7110400000
H	  26.0384000000	  -0.0391276481	   0.1840554826
N	  27.5115000000	   5.5625400000	   1.3833200000
S	  26.9531000000	   4.1344200000	   1.0614600000
O	  26.1929000000	   3.4435600000	   2.1100900000
O	  26.5098000000	   4.0472200000	  -0.2620445174
C	  28.5052000000	   3.2221500000	   0.9539570000
F	  28.2242000000	   1.9954600000	   1.1708500000
F	  29.3057000000	   3.4901400000	   1.9748700000
F	  29.2251000000	   3.4007000000	  -0.1238445174
S	  27.2691000000	   6.8683800000	   0.5729554826
O	  27.2596000000	   8.0700200000	   1.3575900000
O	  26.2913000000	   6.7570300000	  -0.4662445174
C	  28.8547000000	   7.1156400000	  -0.3545445174
F	  29.8597000000	   7.2522900000	   0.4626554826
F	  29.0702000000	   6.1083800000	  -1.2413445174
F	  28.7605000000	   8.2066900000	  -1.0731445174
S	  36.3066000000	  -2.7073276481	   8.2420800000
S	  35.2400000000	  -0.9604276481	   7.7066800000
S	  33.1496000000	  -1.2028276481	   8.0407000000
S	  29.0344000000	  -1.2844276481	   4.7099200000
S	  27.2773000000	  -0.1242276481	   4.6929000000
S	  27.6540000000	   1.9046600000	   4.5002300000
S	  30.0279000000	  -1.5939276481	   6.4586500000
S	  32.1179000000	  -1.4911276481	   6.2728700000
