46

Li	  17.2886000000	   6.8382600000	  16.6242000000
O	  17.9964000000	   6.2021900000	  15.0659000000
O	  16.1656000000	   7.9423600000	  15.4738000000
C	  17.6440000000	   3.8322600000	  13.0738000000
C	  16.5750000000	   4.6951300000	  13.6743000000
C	  16.9274000000	   6.1584800000	  14.0997000000
C	  18.7821000000	   3.5081700000	  14.0579000000
C	  17.0963000000	   2.5335300000	  12.4784000000
C	  15.6896000000	   6.7694100000	  14.8020000000
H	  18.1507000000	   4.3149300000	  12.2080000000
H	  16.1625000000	   4.1087200000	  14.5561000000
H	  15.7575000000	   4.8814900000	  12.9861000000
H	  17.1644000000	   6.8052400000	  13.2362000000
H	  19.4432000000	   2.7660800000	  13.6943000000
H	  19.3231000000	   4.4625500000	  14.1223000000
H	  18.4611000000	   3.4110500000	  15.0753000000
H	  16.8912000000	   1.7826500000	  13.1801000000
H	  16.2289000000	   2.7157300000	  11.8651000000
H	  17.8048000000	   1.9524300000	  11.9106000000
H	  14.8718000000	   7.0264700000	  14.0610000000
H	  15.1933000000	   6.2380700000	  15.6007000000
H	  18.8271000000	   5.9057700000	  14.6331000000
H	  16.0778000000	   8.5910300000	  14.7847000000
N	  18.7596000000	  10.7474000000	  17.8015000000
S	  18.4048000000	  11.4510000000	  19.1522000000
O	  17.1457000000	  10.9222000000	  19.7110000000
O	  19.4685000000	  11.5565000000	  20.0521000000
C	  17.9851000000	  13.1612000000	  18.6850000000
F	  16.9673000000	  13.3313000000	  17.9233000000
F	  18.9761000000	  13.6892000000	  17.9135000000
F	  17.8796000000	  14.0039000000	  19.7390000000
S	  19.4688000000	   9.3740800000	  17.6647000000
O	  18.6059000000	   8.2752500000	  17.3517000000
O	  20.5166000000	   9.1620900000	  18.6139000000
C	  20.2792000000	   9.5535500000	  16.0941000000
F	  21.0265000000	  10.6764000000	  16.0503000000
F	  21.0843000000	   8.4802100000	  15.8541000000
F	  19.3805000000	   9.5772500000	  15.0992000000
S	  25.2152000000	   2.7182900000	  12.2306000000
S	  23.3548000000	   3.6131100000	  12.7131000000
S	  22.2368000000	   2.7871200000	  14.3295000000
S	  19.5261000000	   4.9458200000	  17.9758000000
S	  17.5203000000	   4.5142200000	  17.7059000000
S	  16.2737000000	   6.1686800000	  18.3216000000
S	  20.7728000000	   5.4941000000	  16.2282000000
S	  22.3003000000	   4.0558500000	  15.9813000000
