53

Li	  37.5080000000	  40.4067000000	  56.6761000000
O	  37.7323000000	  42.2933000000	  56.9191000000
O	  39.2295000000	  40.2846000000	  57.7074000000
C	  36.4111000000	  42.8519000000	  59.8000345174
C	  37.6732000000	  42.0265000000	  59.4265645174
C	  38.4224000000	  42.5111000000	  58.1390000000
C	  35.6726000000	  42.1855000000	  60.9412145174
C	  36.6846000000	  44.3518000000	  60.1529045174
C	  39.6022000000	  41.5535000000	  57.9649000000
H	  35.7986000000	  42.7285000000	  58.9259000000
H	  37.2998000000	  41.0167000000	  59.2401855174
H	  38.3482000000	  41.7831000000	  60.2825945174
H	  38.8133000000	  43.5559000000	  58.0494000000
H	  34.7544000000	  42.7274000000	  61.0355645174
H	  35.4716000000	  41.1925000000	  60.5560845174
H	  36.1889000000	  42.1108000000	  61.9481845174
H	  35.7842000000	  44.9645000000	  60.4018445174
H	  37.5021000000	  44.3934000000	  60.8967045174
H	  37.0641000000	  44.7820000000	  59.2079985174
H	  40.1488000000	  41.8908000000	  57.0590000000
H	  40.2460000000	  41.5691000000	  58.8410000000
H	  37.3468000000	  43.0634000000	  56.5793000000
H	  39.3168000000	  39.7334000000	  58.5029000000
O	  37.9328000000	  39.3477000000	  54.9470000000
O	  40.0319000000	  40.6741000000	  54.0201000000
C	  37.9846000000	  36.3048000000	  55.4101000000
C	  38.6943000000	  37.2085000000	  54.2859000000
C	  39.0924000000	  38.6244000000	  54.6751000000
C	  37.0946000000	  35.2140000000	  54.8867000000
C	  39.0617000000	  35.8209000000	  56.3774000000
C	  39.8469000000	  39.3281000000	  53.5663000000
H	  37.3592000000	  36.9553000000	  56.0404000000
H	  38.0845000000	  37.2695000000	  53.4284000000
H	  39.4729000000	  36.6954000000	  53.7341000000
H	  39.8055000000	  38.5661000000	  55.4331000000
H	  36.4604000000	  35.5158000000	  53.9971000000
H	  37.6141000000	  34.3175000000	  54.5859000000
H	  36.4300000000	  34.8414000000	  55.6389000000
H	  39.8588000000	  36.5091000000	  56.6935000000
H	  38.4608000000	  35.5639000000	  57.2639000000
H	  39.6512000000	  34.9197000000	  56.1237000000
H	  40.8229000000	  38.7998000000	  53.3903000000
H	  39.3168000000	  39.4710000000	  52.5667000000
H	  37.2735000000	  39.0702000000	  54.2896000000
H	  39.1781000000	  40.9256000000	  54.3529000000
S	  39.5351000000	  44.6827000000	  54.9741000000
S	  37.4934000000	  44.0655000000	  54.5180000000
S	  37.0719000000	  43.4312000000	  52.5419000000
S	  34.6858000000	  38.9190000000	  54.0612000000
S	  34.2222000000	  39.5491000000	  56.0359000000
S	  35.8246000000	  39.3363000000	  57.3917000000
S	  34.8673000000	  40.6056000000	  52.8417000000
S	  36.8758000000	  41.2813000000	  52.6403000000
