78

Li	  58.6721000000	  20.3590000000	  10.6625000000
O	  60.4985789422	  20.0049000000	  10.0674000000
O	  62.1514289422	  18.5990000000	   9.3592700000
C	  61.5544789422	  20.9094000000	   9.7245200000
C	  62.5807089422	  19.9091000000	   9.1384600000
C	  61.0666889422	  18.6912000000	  10.2040000000
H	  61.2051889422	  21.6573000000	   8.9954000000
H	  61.9175989422	  21.3565000000	  10.6781000000
H	  62.8305889422	  20.0554000000	   8.0895800000
H	  63.5378989422	  20.0159000000	   9.6895800000
H	  61.5248389422	  18.7136000000	  11.1779000000
H	  60.3743589422	  17.8646000000	  10.2800000000
O	  58.0386000000	  21.4414000000	   9.3055200000
O	  57.6030000000	  22.1190000000	   6.8635700000
C	  58.3755000000	  25.0576000000	   9.9778900000
C	  58.8129000000	  23.7207000000	   9.4856600000
C	  57.6223000000	  22.8041000000	   9.2733900000
C	  59.4791589422	  25.6725000000	  10.8899000000
C	  58.2152000000	  26.1251000000	   8.8170200000
C	  56.9618000000	  22.8934000000	   7.8985300000
H	  57.5049000000	  25.0404000000	  10.5577000000
H	  59.5104489422	  23.3418000000	  10.2280000000
H	  59.3272439422	  23.9584000000	   8.5259100000
H	  56.8449000000	  22.7997000000	  10.0724000000
H	  59.1853000000	  26.6695000000	  11.2143000000
H	  59.7509689422	  25.0253000000	  11.7366000000
H	  60.3377489422	  25.8523000000	  10.1923000000
H	  57.3013000000	  26.0129000000	   8.3289800000
H	  58.1912000000	  27.1634000000	   9.0920600000
H	  59.0385000000	  26.1347000000	   8.1776600000
H	  55.9481000000	  22.5214000000	   8.0178600000
H	  56.8811000000	  23.9676000000	   7.6575600000
H	  57.7348000000	  21.2063000000	   8.4152100000
H	  57.9854000000	  22.6931000000	   6.2292400000
O	  56.1702000000	  16.6574000000	   9.3051600000
O	  57.6712000000	  18.5120000000	  10.4711000000
C	  56.0541000000	  14.5221000000	  11.4516000000
C	  56.4814000000	  15.9834000000	  11.5147000000
C	  55.7746000000	  16.9599000000	  10.6126000000
C	  56.9375000000	  13.5914000000	  12.2840000000
C	  54.5586000000	  14.2754000000	  11.6543000000
C	  56.2325000000	  18.4284000000	  10.8518000000
H	  56.3181000000	  14.2229000000	  10.4333000000
H	  57.5408000000	  16.0515000000	  11.3592000000
H	  56.2929000000	  16.3128000000	  12.5045000000
H	  54.7042000000	  16.9338000000	  10.7421000000
H	  56.8365000000	  13.8588000000	  13.3226000000
H	  56.6410000000	  12.5456000000	  12.2882000000
H	  58.0153000000	  13.7143000000	  12.0833000000
H	  54.3927000000	  13.1961000000	  11.3546000000
H	  54.2790000000	  14.3045000000	  12.6812000000
H	  53.8999000000	  14.8663000000	  10.9416000000
H	  55.6571000000	  19.1560000000	  10.3851000000
H	  56.2274000000	  18.7385000000	  11.8580000000
H	  55.6094000000	  17.2873000000	   8.8759800000
H	  57.7958000000	  17.9313000000	   9.7183000000
O	  58.9308000000	  21.4803000000	  12.1459000000
O	  59.9827689422	  22.9664000000	  13.9910000000
C	  55.3997000000	  22.2119000000	  13.5480000000
C	  56.6244000000	  21.5086000000	  13.0570000000
C	  57.9371000000	  22.3065000000	  12.8103000000
C	  55.1042000000	  23.5077000000	  12.7361000000
C	  54.2680000000	  21.2576000000	  13.5111000000
C	  58.5910000000	  22.6131000000	  14.1688000000
H	  55.5092000000	  22.4541000000	  14.6201000000
H	  56.4298000000	  21.1564000000	  12.1067000000
H	  56.8740000000	  20.5664000000	  13.6352000000
H	  57.8212000000	  23.1816000000	  12.2235000000
H	  55.1968000000	  23.3686000000	  11.6712000000
H	  54.0986000000	  23.8341000000	  12.9824000000
H	  55.7719000000	  24.3408000000	  13.0353000000
H	  53.3206000000	  21.6631000000	  13.8521000000
H	  54.1942000000	  20.8230000000	  12.4921000000
H	  54.5512000000	  20.4846000000	  14.1896000000
H	  57.9998000000	  23.3394000000	  14.7190000000
H	  58.5918000000	  21.7417000000	  14.7777000000
H	  59.7185689422	  21.8657000000	  12.5351000000
H	  60.2535989422	  23.6031000000	  14.6573000000
