53

Li	  34.0529000000	  36.6446000000	  54.5434000000
O	  34.0088000000	  37.3187000000	  56.3778000000
O	  32.0229000000	  35.4444000000	  56.5462000000
C	  32.4340000000	  39.8461000000	  57.6731000000
C	  32.0057000000	  38.3706000000	  57.5519000000
C	  33.1681000000	  37.3293000000	  57.5307000000
C	  31.2199000000	  40.8178000000	  57.3316000000
C	  33.1316000000	  40.3265000000	  58.9574000000
C	  32.7053000000	  35.9152000000	  57.7338000000
H	  33.1773000000	  40.1480000000	  56.9472000000
H	  31.5098000000	  38.3411000000	  56.6365000000
H	  31.2066000000	  38.1754000000	  58.2462000000
H	  33.7085000000	  37.4816000000	  58.4005000000
H	  31.4517000000	  41.8183000000	  57.4363000000
H	  30.8833000000	  40.6848000000	  56.3076000000
H	  30.3906000000	  40.7028000000	  58.0209000000
H	  32.3732000000	  40.4178000000	  59.7624245174
H	  34.0109000000	  39.7570000000	  59.2546025174
H	  33.5081000000	  41.3563000000	  58.8116000000
H	  33.6055000000	  35.2917000000	  57.9245000000
H	  32.0197000000	  35.8691000000	  58.5662000000
H	  34.7673000000	  37.9026000000	  56.5026000000
H	  31.1196000000	  35.8320000000	  56.5616000000
O	  35.9802000000	  36.9690000000	  54.2965000000
O	  38.5677000000	  37.4392000000	  55.2592000000
C	  36.4775000000	  35.5513000000	  51.4048000000
C	  37.4538000000	  36.0680000000	  52.4589000000
C	  36.9602000000	  36.0184000000	  53.9531000000
C	  36.6064000000	  36.2518000000	  50.0660000000
C	  36.5032000000	  34.0038000000	  51.3710000000
C	  38.1344000000	  36.1363000000	  55.0178000000
H	  35.4521000000	  35.8293000000	  51.7105000000
H	  37.7187000000	  37.1067000000	  52.2906000000
H	  38.4369000000	  35.5778000000	  52.4861000000
H	  36.5738000000	  35.0179000000	  53.9891000000
H	  36.9023000000	  37.3427000000	  50.1563000000
H	  37.2552000000	  35.7645000000	  49.3442000000
H	  35.5508000000	  36.2313000000	  49.6937000000
H	  35.7456000000	  33.6814000000	  50.6857000000
H	  37.4473000000	  33.5871000000	  51.0341000000
H	  36.2619000000	  33.5411000000	  52.2873000000
H	  37.7835000000	  35.7493000000	  55.9690000000
H	  38.9973000000	  35.5352000000	  54.5877000000
H	  36.3778000000	  37.8334000000	  54.1173000000
H	  39.0285000000	  37.7672000000	  54.5346000000
S	  37.3115000000	  40.0471000000	  53.0080000000
S	  36.2558000000	  41.8158000000	  53.0134000000
S	  34.6705000000	  41.9525000000	  54.3678000000
S	  33.3554000000	  37.8785000000	  52.4481000000
S	  32.2995000000	  36.0355000000	  52.5489000000
S	  33.4291000000	  34.7596000000	  53.7453000000
S	  32.7866000000	  39.2167000000	  53.9679000000
S	  32.8889000000	  41.1805000000	  53.4548000000
