20

Li	  50.9141000000	  39.7586000000	  25.6423000000
O	  51.0309000000	  38.3656000000	  26.8513000000
O	  49.5295000000	  37.6294000000	  28.5003000000
C	  51.8961000000	  38.1537000000	  27.9680000000
C	  50.9021000000	  37.3899000000	  28.9437000000
C	  49.7530000000	  37.8098000000	  27.1271000000
H	  52.7722000000	  37.5340000000	  27.7164000000
H	  52.3291000000	  39.0487000000	  28.3171000000
H	  51.1590000000	  36.3299000000	  29.1237000000
H	  50.9321000000	  37.8256000000	  29.9555000000
H	  48.9967000000	  38.4670000000	  26.6532000000
H	  49.7546000000	  36.8246000000	  26.5845000000
S	  50.3761000000	  41.4795000000	  26.7983000000
S	  48.8906000000	  41.8015000000	  25.3058000000
S	  47.2905000000	  40.5633000000	  25.8484000000
S	  49.6730000000	  38.1350000000	  22.8918000000
S	  51.5549000000	  38.3136000000	  23.7434000000
S	  52.1196000000	  40.3489000000	  24.0707000000
S	  48.0032000000	  37.6335000000	  24.1089000000
S	  46.6661000000	  39.2592000000	  24.2846000000
