39

Li	  17.0463000000	  56.8652000000	   1.1561500000
O	  18.3455000000	  57.4034000000	   0.0789554826
O	  19.4737000000	  58.6827000000	  -2.2772445174
C	  20.8053000000	  57.7958000000	   1.9778300000
C	  20.5382000000	  58.0042000000	   0.4865554826
C	  19.1465000000	  58.5936000000	   0.1402554826
C	  22.0466000000	  56.8894000000	   2.1038900000
C	  21.0001000000	  59.1733516481	   2.7558200000
C	  19.1124000000	  59.4255676481	  -1.1829445174
H	  19.9379000000	  57.2636000000	   2.3835100000
H	  20.5912000000	  57.0663000000	  -0.0560445174
H	  21.2646000000	  58.6623000000	   0.0943554826
H	  18.8608000000	  59.2667006481	   0.9524040000
H	  21.7409000000	  55.8480000000	   1.9365400000
H	  22.9193000000	  57.1656000000	   1.4056600000
H	  22.4061000000	  56.8555000000	   3.0989300000
H	  20.2079000000	  59.9192476481	   2.6510400000
H	  21.0289000000	  59.0110000000	   3.8800800000
H	  21.9119000000	  59.6387776481	   2.4878600000
H	  18.1498000000	  59.8285876481	  -1.3608445174
H	  19.8977000000	  60.2661976481	  -1.2311445174
H	  18.7188000000	  56.8340000000	  -0.6058445174
H	  20.3191000000	  58.2860000000	  -2.1102445174
S	  15.2809000000	  57.8514000000	   0.6858554826
S	  13.6633000000	  59.2030676481	   0.9613150000
S	  13.9941000000	  61.0188376481	  -0.0388445174
S	  13.7879000000	  63.4141476481	  -4.3857445174
S	  12.9912000000	  63.6473176481	  -6.3222445174
S	  10.9565000000	  64.1004576481	  -6.4257445174
S	  13.5614000000	  61.4800976481	  -3.5520445174
S	  12.6239000000	  61.1933276481	  -1.6839445174
S	  25.9731000000	  53.0547000000	   3.7889100000
S	  24.0601000000	  52.1063000000	   3.8517900000
S	  22.5909000000	  53.3941000000	   3.1553000000
S	  18.3375000000	  53.7565000000	   1.2956300000
S	  16.8763000000	  54.6345000000	   2.5682100000
S	  17.5660000000	  56.4344000000	   3.2739100000
S	  19.5330000000	  52.2261000000	   2.2663100000
S	  21.5413000000	  52.4298000000	   1.7094300000
