67

Li	  13.1421000000	  11.7148000000	  47.3578000000
O	  12.5868000000	  13.2161000000	  50.6058000000
O	  13.2944000000	  11.6446000000	  49.2278000000
C	  13.9865000000	  13.1901000000	  50.7566000000
C	  14.3861000000	  11.8815000000	  50.0830000000
C	  12.1931000000	  12.1446000000	  49.9131000000
H	  14.4019000000	  14.0178000000	  50.2095000000
H	  14.3160000000	  13.2035000000	  51.7780000000
H	  15.2616000000	  11.9015000000	  49.4136000000
H	  14.4966000000	  10.9663000000	  50.6778000000
H	  11.8268000000	  11.4372000000	  50.5859000000
H	  11.3744000000	  12.5529000000	  49.2564000000
O	  11.5501000000	  10.5950000000	  47.1947000000
O	   9.5233000000	   9.9268900000	  46.4896000000
C	  11.6873000000	  10.2549000000	  45.8032000000
C	  10.2760000000	   9.9879100000	  45.2899000000
C	  10.4209000000	   9.8974800000	  47.5904000000
H	  12.1089000000	  11.0690000000	  45.2133000000
H	  12.2760000000	   9.3276800000	  45.7453000000
H	   9.9628600000	  10.8145000000	  44.6976000000
H	  10.1848000000	   9.0736300000	  44.7731000000
H	  10.7634000000	   8.8792500000	  47.7763000000
H	  10.0946000000	  10.4081000000	  48.5230000000
O	  12.9083000000	  13.5263000000	  47.0833000000
O	  14.5763000000	  15.3133000000	  47.3474000000
C	  11.3349000000	  13.9930000000	  44.2896000000
C	  12.5579000000	  14.6586000000	  44.8971000000
C	  13.5002000000	  13.7532000000	  45.8481000000
C	  10.2648000000	  13.6934000000	  45.3951000000
C	  10.6631000000	  14.8242000000	  43.2218000000
C	  14.7859000000	  14.4225000000	  46.2352000000
H	  11.5891000000	  13.0472000000	  43.8884000000
H	  12.2456000000	  15.5249000000	  45.4307000000
H	  13.2582000000	  15.0245000000	  44.0475000000
H	  13.7441000000	  12.8016000000	  45.3563000000
H	  10.0183000000	  14.6247000000	  45.8007000000
H	   9.3841600000	  13.1579000000	  44.9016000000
H	  10.6613000000	  12.9846000000	  46.1558000000
H	   9.7883700000	  14.3026000000	  42.8181000000
H	  10.3168000000	  15.7774000000	  43.5903000000
H	  11.3935000000	  14.9162000000	  42.3383000000
H	  15.5171000000	  13.6439000000	  46.6320000000
H	  15.2178000000	  14.9673000000	  45.4142000000
H	  13.2980000000	  14.2659000000	  47.5777000000
H	  14.3179000000	  16.2267000000	  46.9980000000
O	  16.9227000000	  10.3498000000	  47.5794000000
O	  14.6703000000	  10.8523000000	  46.6305000000
C	  19.5582000000	  10.1650000000	  45.8518000000
C	  18.0923000000	  10.0116000000	  45.4462000000
C	  16.9670000000	  10.8223000000	  46.1995000000
C	  20.3976000000	   9.5278700000	  44.6910000000
C	  19.9292000000	  11.5908000000	  46.0270000000
C	  15.5805000000	  10.6952000000	  45.5503000000
H	  19.7880000000	   9.6176900000	  46.7783000000
H	  17.7944000000	   8.9564000000	  45.3840000000
H	  18.0852000000	  10.3813000000	  44.3905000000
H	  17.3226000000	  11.8469000000	  46.1824000000
H	  20.0518000000	   9.6575600000	  43.7022000000
H	  21.4733000000	   9.6554000000	  44.7696000000
H	  20.4264000000	   8.4476200000	  44.7884000000
H	  19.6244000000	  12.0501000000	  45.1188000000
H	  19.4908000000	  12.1572000000	  46.8596000000
H	  21.0256000000	  11.7090000000	  46.0955000000
H	  15.4766000000	  11.4227000000	  44.6833000000
H	  15.6778000000	   9.7167400000	  45.2058000000
H	  17.7908000000	   9.9973100000	  47.8424000000
H	  15.3850000000	  10.7958000000	  47.2627000000
