42

Li	  46.5227000000	  43.7088000000	  30.0454000000
O	  45.8510000000	  44.0446000000	  28.2386000000
O	  45.0410000000	  45.3717000000	  26.5837000000
C	  46.4031000000	  43.5124000000	  27.0423000000
C	  45.8058000000	  44.3870000000	  25.8846000000
C	  45.5535000000	  45.3153000000	  27.8830000000
H	  47.4717000000	  43.4321000000	  26.9597000000
H	  46.0545000000	  42.4618000000	  26.8833000000
H	  46.5889000000	  44.7337000000	  25.2589000000
H	  45.1718000000	  43.7101000000	  25.2197000000
H	  44.8267000000	  45.7597000000	  28.5917000000
H	  46.4565000000	  45.9577000000	  27.9160000000
O	  45.9107000000	  44.1033000000	  31.7584000000
O	  45.0384000000	  41.5527000000	  32.4934000000
C	  43.8847000000	  46.3274000000	  32.1627000000
C	  43.5427000000	  44.8866000000	  31.7728000000
C	  44.5757000000	  43.9301000000	  32.2677000000
C	  43.0484000000	  47.2927000000	  31.2997000000
C	  43.6621000000	  46.6555000000	  33.6259000000
C	  44.1183000000	  42.4925000000	  32.1235000000
H	  44.9372000000	  46.5079000000	  31.9610000000
H	  43.5642000000	  44.8516000000	  30.6510000000
H	  42.5592000000	  44.5982000000	  32.0468000000
H	  44.8155000000	  44.0706000000	  33.3159000000
H	  42.3512000000	  47.8909000000	  31.7614000000
H	  43.7285000000	  48.0555000000	  30.9810000000
H	  42.6121000000	  46.8989000000	  30.4336000000
H	  44.0900000000	  45.9821000000	  34.2993000000
H	  43.9076000000	  47.7204000000	  33.9124000000
H	  42.6288000000	  46.5235000000	  33.7419000000
H	  43.1948000000	  42.3587000000	  32.7482000000
H	  43.7848000000	  42.2211000000	  31.1245000000
H	  46.3945000000	  44.6639000000	  32.3826000000
H	  45.8716000000	  41.9772000000	  32.3007000000
S	  48.3739000000	  44.9341000000	  29.6076000000
S	  50.1461000000	  45.8438000000	  30.3043000000
S	  51.8979000000	  45.3859000000	  29.3928000000
S	  50.8856000000	  40.8979000000	  29.8711000000
S	  49.1159000000	  41.2087000000	  28.6833000000
S	  47.3623000000	  41.5752000000	  29.6942000000
S	  52.3944000000	  42.1615000000	  29.1653000000
S	  52.9990000000	  43.8495000000	  30.2738000000
