53

Li	  33.2417000000	  24.0556000000	   3.7932100000
O	  30.9857000000	  27.4053000000	   3.1692900000
O	  32.0638000000	  25.7464000000	   4.3732600000
C	  30.0179000000	  26.4228000000	   3.5425900000
C	  30.7133000000	  25.8218000000	   4.8029400000
C	  32.2214000000	  26.7996000000	   3.5067900000
H	  29.0726000000	  26.8862000000	   3.8249700000
H	  29.8188000000	  25.6076000000	   2.8500300000
H	  30.6451000000	  26.6932000000	   5.5561700000
H	  30.2350000000	  24.9212000000	   5.2442900000
H	  32.4600000000	  26.4641000000	   2.5328800000
H	  33.0782000000	  27.4187000000	   3.8505200000
O	  33.3367000000	  23.7036000000	   5.6711400000
O	  34.9970000000	  23.6764000000	   7.2168500000
C	  33.2500000000	  22.4425000000	   6.3136600000
C	  34.4519000000	  22.4250000000	   7.2170300000
C	  34.1094000000	  24.3965000000	   6.5316500000
H	  32.3287000000	  22.2027000000	   6.9825100000
H	  33.2350000000	  21.6939000000	   5.5183200000
H	  34.2016000000	  22.2557000000	   8.2964500000
H	  35.1833000000	  21.6482000000	   6.7762400000
H	  34.7517000000	  25.0822000000	   5.9804900000
H	  33.4065000000	  24.9605000000	   7.1358300000
O	  32.0130000000	  21.0474000000	   1.1818200000
O	  32.1145000000	  23.5125000000	   2.4230400000
C	  29.5906000000	  19.6986000000	   0.1337554826
C	  29.5166000000	  20.9082000000	   1.1395400000
C	  30.8091000000	  21.8340000000	   1.2779900000
C	  28.2827000000	  18.8799000000	   0.1919554826
C	  29.8568000000	  20.3762000000	  -1.2433445174
C	  31.0203000000	  22.6105000000	   2.6124400000
H	  30.3790000000	  19.0910000000	   0.4666554826
H	  29.3240000000	  20.5497000000	   2.1928300000
H	  28.6227000000	  21.5131000000	   1.0225800000
H	  30.7947000000	  22.5775000000	   0.5588554826
H	  27.9826000000	  18.3015000000	   1.0725300000
H	  27.4700000000	  19.5746000000	   0.0172554826
H	  28.2950000000	  18.1945000000	  -0.6505445174
H	  29.3030000000	  21.3119000000	  -1.4451445174
H	  30.9747000000	  20.5982000000	  -1.2295445174
H	  29.7108000000	  19.6636000000	  -2.0677445174
H	  30.1220000000	  23.2347000000	   2.6083100000
H	  31.0130000000	  22.0397000000	   3.6052700000
H	  32.7746000000	  21.5674000000	   1.4316200000
H	  31.9116000000	  23.9728000000	   1.5849600000
S	  35.1512000000	  24.7512000000	   3.1077900000
S	  35.1497000000	  22.7041000000	   3.3318400000
S	  35.2771000000	  21.6062000000	   1.6053400000
S	  38.9378000000	  19.4598000000	  -1.0957445174
S	  38.4497000000	  19.9922000000	  -3.0224445174
S	  36.7985000000	  18.9837000000	  -4.0661445174
S	  38.3404000000	  21.0201000000	   0.2003554826
S	  36.8522000000	  20.3530000000	   1.4524600000
