60

Li	   6.0183300000	  23.3029000000	  30.9628000000
O	   8.1805900000	  26.7538000000	  29.2254000000
O	   6.8311400000	  24.8702000000	  30.1914000000
C	   8.0812700000	  27.6794000000	  26.3153000000
C	   7.6260200000	  26.3160000000	  26.8693000000
C	   7.1661700000	  26.2252000000	  28.3087000000
C	   8.7681300000	  27.3535000000	  24.9276000000
C	   6.8858400000	  28.6757000000	  26.0986000000
C	   6.8664800000	  24.8140000000	  28.7778000000
H	   8.8614800000	  27.9985000000	  27.0419000000
H	   8.4365600000	  25.5612000000	  26.7997000000
H	   6.8017200000	  25.9401000000	  26.2768000000
H	   6.2740000000	  26.8798000000	  28.3335000000
H	   9.0604400000	  28.3285000000	  24.5317000000
H	   9.6842900000	  26.7711000000	  24.9752000000
H	   7.9978800000	  26.9757000000	  24.2644000000
H	   6.2051000000	  28.2217000000	  25.4077000000
H	   6.4083400000	  28.9139000000	  27.0522000000
H	   7.2897200000	  29.6026000000	  25.7766000000
H	   5.8571500000	  24.4730000000	  28.4697000000
H	   7.6846500000	  24.1005000000	  28.4538000000
H	   8.9967000000	  26.4372000000	  28.8313000000
H	   7.2879800000	  25.6925000000	  30.3710000000
O	   1.7437500000	  24.5224000000	  31.4333000000
O	   4.2192200000	  23.5327000000	  31.1930000000
C	  -0.2123589422	  23.7926000000	  29.2622000000
C	   1.2478200000	  23.8530000000	  29.1250000000
C	   2.0555000000	  23.5743000000	  30.3573000000
C	  -1.0152589422	  24.4248000000	  28.0935000000
C	  -0.7627589422	  22.3014000000	  29.3445000000
C	   3.5335200000	  23.8223000000	  30.0279000000
H	  -0.5476589422	  24.2689000000	  30.1409000000
H	   1.4269500000	  24.8911000000	  28.7847000000
H	   1.6378900000	  23.2427000000	  28.3381000000
H	   2.0770500000	  22.4988000000	  30.5531000000
H	  -0.9585589422	  25.4624000000	  28.3310000000
H	  -0.5007589422	  24.1231000000	  27.1408000000
H	  -2.0376589422	  24.1753000000	  28.0326000000
H	  -1.8860589422	  22.2276000000	  29.3440000000
H	  -0.3787589422	  21.6158000000	  28.6150000000
H	  -0.3418589422	  21.7612000000	  30.1847000000
H	   3.7402800000	  23.1497000000	  29.2025000000
H	   3.6845700000	  24.8669000000	  29.6909000000
H	   2.0582400000	  25.3569000000	  31.1311000000
H	   3.5721500000	  23.6447000000	  31.8464000000
N	   7.7376900000	  20.2390000000	  32.0737000000
S	   6.8839500000	  20.3873000000	  30.7978000000
O	   6.8541300000	  21.7782000000	  30.3258000000
O	   7.1121200000	  19.3941000000	  29.7848000000
C	   5.1079100000	  20.1276000000	  31.3143000000
F	   4.8943600000	  20.9364000000	  32.3761000000
F	   4.8778500000	  18.8680000000	  31.6885000000
F	   4.2718800000	  20.4839000000	  30.3448000000
S	   8.3085700000	  18.9510000000	  32.7476000000
O	   9.7218600000	  18.9123000000	  33.0894000000
O	   7.7214700000	  17.7148000000	  32.3331000000
C	   7.5469700000	  19.2218000000	  34.3492000000
F	   7.8822700000	  18.1546000000	  35.0758000000
F	   8.0337700000	  20.3191000000	  34.9471000000
F	   6.1918100000	  19.2551000000	  34.2353000000
