60

Li	  53.8833000000	  52.2700000000	  26.1324000000
O	  55.8830000000	  49.2313000000	  27.5011000000
O	  54.6137000000	  51.0151000000	  27.3269000000
C	  54.9986000000	  49.1373000000	  28.6367000000
C	  54.3392000000	  50.4903000000	  28.6379000000
C	  55.8955000000	  50.5402000000	  27.1244000000
H	  54.2790000000	  48.3337000000	  28.8030000000
H	  55.5945000000	  49.0331000000	  29.4823000000
H	  53.2852000000	  50.3515000000	  28.8735000000
H	  54.8363000000	  51.0702000000	  29.4184000000
H	  56.5875000000	  51.1254000000	  27.7731000000
H	  56.1543000000	  50.5142000000	  26.1312000000
O	  52.9701000000	  53.3189000000	  27.6255000000
O	  51.6048000000	  54.5123000000	  28.8243000000
C	  53.7720000000	  54.3351000000	  28.2192000000
C	  52.8301000000	  54.8902000000	  29.2798000000
C	  51.7979000000	  53.9613000000	  27.5778000000
H	  54.6927000000	  53.8510000000	  28.6813000000
H	  54.1592000000	  55.0860000000	  27.5284000000
H	  53.0266000000	  54.3294000000	  30.2565000000
H	  53.0174000000	  55.9659000000	  29.4416000000
H	  51.7398000000	  54.7866000000	  26.8398000000
H	  51.0555000000	  53.1694000000	  27.2682000000
O	  53.3274000000	  53.1146000000	  24.4583000000
O	  55.4680000000	  53.5783000000	  26.0041000000
C	  53.4381000000	  56.3621000000	  23.0338000000
C	  53.8416000000	  55.5410000000	  24.3307000000
C	  54.2655000000	  54.0463000000	  24.0100000000
C	  52.3052000000	  57.4391000000	  23.3462000000
C	  54.6532000000	  57.0586000000	  22.3620000000
C	  55.5961000000	  53.6932000000	  24.6383000000
H	  52.8560000000	  55.6246000000	  22.4135000000
H	  53.0829000000	  55.6047000000	  25.0955000000
H	  54.6291000000	  56.0905000000	  24.7697000000
H	  54.4215000000	  53.8658000000	  22.9500000000
H	  52.7634000000	  58.2401000000	  23.9945000000
H	  51.9469000000	  57.9151000000	  22.3596000000
H	  51.4609000000	  56.8971000000	  23.8249000000
H	  54.3536000000	  57.5292000000	  21.4511000000
H	  55.0950000000	  57.8116000000	  23.0958000000
H	  55.3592000000	  56.3624000000	  22.0366000000
H	  56.0531000000	  52.8208000000	  24.1361000000
H	  56.2574000000	  54.5380000000	  24.3895000000
H	  52.6169000000	  53.1695000000	  23.8400000000
H	  56.3236000000	  53.7728000000	  26.3202000000
N	  50.7018000000	  50.3799000000	  23.9404000000
S	  50.4081000000	  51.8597000000	  23.6660000000
O	  50.0758000000	  52.5989000000	  24.8625000000
O	  51.2318000000	  52.5067000000	  22.7035000000
C	  48.8399000000	  51.7808000000	  22.7063000000
F	  48.2973000000	  52.9135000000	  22.2357000000
F	  47.9271000000	  51.2347000000	  23.5088000000
F	  48.8995000000	  50.9874000000	  21.6590000000
S	  51.5580000000	  49.7599000000	  25.1004000000
O	  50.6947000000	  48.9206000000	  25.9216000000
O	  52.5216000000	  50.6178000000	  25.8221000000
C	  52.7618000000	  48.6685000000	  24.2340000000
F	  53.5975000000	  48.0055000000	  24.9961000000
F	  52.2457000000	  47.7880000000	  23.4828000000
F	  53.5296000000	  49.3810000000	  23.4537000000
