49

Li	  45.6547000000	  37.1036000000	  20.1592000000
O	  49.5297000000	  36.0072000000	  19.5085000000
O	  47.3696000000	  36.7285000000	  19.7949000000
C	  48.8509000000	  35.7365000000	  18.3487000000
C	  47.6576000000	  36.6982000000	  18.4060000000
C	  48.4947000000	  36.3668000000	  20.4555000000
H	  49.6175000000	  35.8229000000	  17.4520000000
H	  48.4845000000	  34.6749000000	  18.2518000000
H	  47.9934000000	  37.7463000000	  18.1911000000
H	  46.7215000000	  36.5057000000	  17.8585000000
H	  48.3206000000	  35.5684000000	  21.1453000000
H	  48.9370000000	  37.1827000000	  21.0647000000
O	  44.3346000000	  36.3905000000	  18.8195000000
O	  44.5966000000	  36.4519000000	  21.5481000000
C	  44.9804000000	  33.4382000000	  18.3060000000
C	  44.5449000000	  34.0343000000	  19.6667000000
C	  43.7624000000	  35.3657000000	  19.5682000000
C	  46.1711000000	  32.4418000000	  18.5254000000
C	  43.8253000000	  32.7904000000	  17.5616000000
C	  43.4468000000	  36.1205000000	  20.8730000000
H	  45.1670000000	  34.2550000000	  17.6405000000
H	  45.4019000000	  34.2499000000	  20.2611000000
H	  43.9999000000	  33.3033000000	  20.2365000000
H	  42.7862000000	  35.2065000000	  18.9723000000
H	  46.3077000000	  31.8505000000	  17.7075000000
H	  47.0686000000	  32.9465000000	  18.8388000000
H	  45.8206000000	  31.6289000000	  19.2174000000
H	  42.9739000000	  33.4517000000	  17.3971000000
H	  44.1916000000	  32.3653000000	  16.6301000000
H	  43.5408000000	  31.9268000000	  18.0939000000
H	  42.7928000000	  36.9517000000	  20.6310000000
H	  42.8468000000	  35.4590000000	  21.4379000000
H	  43.7403000000	  36.5850000000	  18.1108000000
H	  44.9937000000	  35.6471000000	  21.7936000000
N	  45.4444000000	  41.1334000000	  18.4174000000
S	  45.1309000000	  40.4580000000	  19.7810000000
O	  45.6485000000	  39.0615000000	  19.7599000000
O	  45.3676000000	  41.2222000000	  20.9379000000
C	  43.3378000000	  40.2188000000	  19.7519000000
F	  42.8146000000	  39.8956000000	  20.9456000000
F	  42.9671000000	  39.2135000000	  19.0115000000
F	  42.7707000000	  41.4164000000	  19.3926000000
S	  46.8578000000	  41.3638000000	  17.7800000000
O	  47.7853000000	  40.6003000000	  18.5975000000
O	  47.1427000000	  42.6951000000	  17.3460000000
C	  46.7015000000	  40.2544000000	  16.2755000000
F	  47.8168000000	  40.3638000000	  15.4968000000
F	  46.5550000000	  39.0011000000	  16.6036000000
F	  45.6387000000	  40.5575000000	  15.5704000000
