50

Li	  24.0135000000	  56.5255000000	  20.0531000000
O	  24.2029000000	  52.4490000000	  20.5010000000
O	  23.4795000000	  54.5330000000	  20.9672000000
C	  24.0386000000	  52.4698000000	  21.8673000000
C	  23.7453000000	  53.9056000000	  22.1838000000
C	  23.3865000000	  53.4419000000	  20.0476000000
H	  23.1580000000	  51.7988000000	  22.1179000000
H	  24.9532000000	  51.9883000000	  22.3813000000
H	  22.8951000000	  53.9665000000	  22.8857000000
H	  24.5844000000	  54.4812000000	  22.5866000000
H	  23.5831000000	  53.8254000000	  19.0339000000
H	  22.4346000000	  52.9778000000	  19.9811000000
O	  20.8559000000	  57.8983000000	  22.3180000000
O	  23.1525000000	  57.4511000000	  21.4474000000
C	  21.1543000000	  57.5836000000	  25.4074000000
C	  22.2278000000	  57.5236000000	  24.2477000000
C	  21.9261000000	  58.4978000000	  23.0597000000
C	  19.6748000000	  57.6665000000	  25.0045000000
C	  21.3959000000	  56.5536000000	  26.5859000000
C	  23.0919000000	  58.6474000000	  22.1036000000
H	  21.2847000000	  58.6226000000	  25.7757000000
H	  22.2114000000	  56.4927000000	  23.8109000000
H	  23.2336000000	  57.6682000000	  24.7236000000
H	  21.5863000000	  59.4510176481	  23.4186000000
H	  19.3308000000	  58.6232000000	  24.6326000000
H	  19.3262000000	  56.8385000000	  24.2857000000
H	  19.0636000000	  57.4388000000	  25.8956000000
H	  22.4792000000	  56.4229000000	  26.7892000000
H	  20.7633000000	  56.6922000000	  27.5165000000
H	  21.1707000000	  55.5017000000	  26.3230000000
H	  22.8373000000	  59.4807876481	  21.3950000000
H	  24.0407000000	  58.8705000000	  22.4381000000
H	  20.1842000000	  58.5808000000	  22.3970000000
H	  22.2474000000	  57.2232000000	  21.5417000000
S	  26.2178000000	  55.7693000000	  19.8109000000
S	  26.7329000000	  55.9462000000	  21.7830000000
S	  28.8648000000	  56.2056000000	  21.9687000000
S	  32.9068000000	  59.1525066481	  22.7467000000
S	  32.9104000000	  61.1938276481	  22.8858000000
S	  32.9712000000	  62.1292476481	  20.9672000000
S	  31.1380000000	  58.4606000000	  23.6345000000
S	  29.3361000000	  58.1745000000	  22.6136000000
S	  22.6173000000	  56.7709000000	  18.5447000000
S	  24.0837000000	  57.9484000000	  17.4959000000
S	  24.2551000000	  57.4953000000	  15.4825000000
S	  23.0563000000	  61.7927176481	  13.3778000000
S	  21.5415000000	  62.0157276481	  14.8493000000
S	  19.6339000000	  61.9093676481	  13.9757000000
S	  23.5606000000	  59.8505876481	  13.0309000000
S	  24.9439000000	  59.1056000000	  14.3823000000
