28

Li	  25.2149000000	  51.2641000000	  29.5758000000
O	  24.5088000000	  49.4074000000	  33.1130000000
O	  24.0737000000	  50.4588000000	  31.1173000000
C	  24.2921000000	  48.4618000000	  32.0383000000
C	  23.7070000000	  49.1464000000	  30.8278000000
C	  24.0974000000	  50.5799000000	  32.4941000000
H	  25.1356000000	  47.8055000000	  31.7916000000
H	  23.5432000000	  47.8397000000	  32.5221000000
H	  24.0604000000	  48.7441000000	  29.8665000000
H	  22.6347000000	  48.9922000000	  30.7655000000
H	  23.0898000000	  50.6584000000	  32.9198000000
H	  24.6525000000	  51.4562000000	  32.8021000000
S	  28.1260000000	  54.1672000000	  37.1071000000
S	  26.4698000000	  55.3830000000	  37.0795000000
S	  26.2337000000	  56.3160000000	  35.1996000000
S	  26.0862000000	  53.6578000000	  31.3542000000
S	  26.1700000000	  53.5669000000	  29.3253000000
S	  24.4601000000	  52.7075000000	  28.4551000000
S	  25.1560000000	  55.4900000000	  31.9813000000
S	  24.7320000000	  55.5360000000	  33.9746000000
S	  30.8720000000	  44.2554000000	  36.8028000000
S	  31.5019000000	  45.1964000000	  35.0391000000
S	  30.0276000000	  45.7434000000	  33.6141000000
S	  29.1816000000	  49.2400000000	  30.7215000000
S	  27.8481000000	  50.5827000000	  29.9384000000
S	  26.3131000000	  49.7274000000	  28.6799000000
S	  28.2275000000	  48.3983000000	  32.3903000000
S	  29.7095000000	  47.7290000000	  33.7300000000
