53

Li	  18.1840000000	  24.8986000000	  40.1851000000
O	  17.3867000000	  27.8028000000	  41.6059000000
O	  18.5384000000	  25.9212000000	  41.5942000000
C	  18.7362000000	  28.1896000000	  41.2544000000
C	  19.5406000000	  26.9024000000	  41.6575000000
C	  17.4416000000	  26.5164000000	  42.1439000000
H	  18.6881000000	  28.5196000000	  40.2061000000
H	  19.0909000000	  29.0704000000	  41.7685000000
H	  20.3223000000	  26.6265000000	  40.9602000000
H	  19.9028000000	  27.0712000000	  42.6692000000
H	  17.3777000000	  26.5303000000	  43.2173000000
H	  16.5783000000	  25.9303000000	  41.8541000000
O	  16.6599000000	  25.0538000000	  39.2802000000
O	  15.1556000000	  26.1721000000	  38.0626000000
C	  16.2790000000	  24.2465000000	  38.1937000000
C	  14.9831000000	  24.8619000000	  37.6503000000
C	  15.8331000000	  26.1178000000	  39.2717000000
H	  16.9917000000	  24.1797000000	  37.4125000000
H	  16.0976000000	  23.1842000000	  38.4470000000
H	  15.0382000000	  24.8100000000	  36.5732000000
H	  14.0465000000	  24.3857000000	  38.0659000000
H	  15.1276000000	  26.1743000000	  40.1883000000
H	  16.4157000000	  27.0544000000	  39.3386000000
N	  15.9436000000	  21.8656000000	  41.1151000000
S	  14.8463000000	  22.7971000000	  41.8078000000
O	  15.4204000000	  23.7408000000	  42.7397000000
O	  13.7726000000	  23.2139000000	  40.9369000000
C	  14.0633000000	  21.6054000000	  42.9483000000
F	  12.9389000000	  22.0652000000	  43.4014000000
F	  14.7505000000	  21.2010000000	  44.0079000000
F	  13.7473000000	  20.4977000000	  42.2098000000
S	  17.4947000000	  21.9150000000	  41.3868000000
O	  17.8784000000	  21.2876000000	  42.6358000000
O	  18.0656000000	  23.1999000000	  41.0932000000
C	  18.1079000000	  20.8358000000	  40.0488000000
F	  19.4519000000	  20.6874000000	  40.0963000000
F	  17.5205000000	  19.6472000000	  39.9666000000
F	  17.7986000000	  21.4646000000	  38.9394000000
N	  21.4225000000	  25.8968000000	  37.8555000000
S	  20.4688000000	  27.0433000000	  37.3310000000
O	  20.4375000000	  27.1308000000	  35.8846000000
O	  19.2526000000	  27.1539000000	  38.0566000000
C	  21.5552000000	  28.4320000000	  37.9469000000
F	  21.8702000000	  28.2917000000	  39.2264000000
F	  20.9131000000	  29.5704000000	  37.9250000000
F	  22.6250000000	  28.4164000000	  37.1978000000
S	  20.9958000000	  24.4415000000	  38.3011000000
O	  19.7224000000	  24.4162000000	  38.9379000000
O	  22.1319000000	  23.7999000000	  38.8827000000
C	  20.7555000000	  23.5532000000	  36.7293000000
F	  20.7198000000	  22.2301000000	  36.8487000000
F	  19.7813000000	  24.0056000000	  36.0656000000
F	  21.7774000000	  23.7386000000	  35.9414000000
