38

Li	   1.9149400000	  16.0966000000	  15.5734000000
O	   0.2931926765	  17.1089000000	  17.1745000000
O	   0.5136926765	  17.0875000000	  14.9769000000
C	  -0.5200073235	  15.9754000000	  16.9051000000
C	  -0.3161073235	  15.9572000000	  15.3300000000
C	   0.2244926765	  17.8629000000	  16.0129000000
H	  -0.1900073235	  15.0187000000	  17.3993000000
H	  -1.5870073235	  16.0805000000	  17.1934000000
H	   0.1545926765	  15.0249000000	  15.0579000000
H	  -1.3026073235	  15.9757000000	  14.7879000000
H	  -0.7482073235	  18.2749000000	  15.9681000000
H	   0.9137820000	  18.6761000000	  16.0048000000
O	   3.8525500000	  15.6148000000	  12.1074000000
O	   2.8939400000	  15.0574000000	  14.0956000000
C	   4.7213200000	  14.6722000000	  12.6869000000
C	   4.2848700000	  14.8201000000	  14.1149000000
C	   2.6756900000	  15.5489000000	  12.7931000000
H	   4.3941400000	  13.7529000000	  12.3188000000
H	   5.7762000000	  14.8437000000	  12.4444000000
H	   4.5761000000	  13.8847000000	  14.6890000000
H	   4.7681900000	  15.6335000000	  14.5827000000
H	   2.1210900000	  16.4803000000	  12.6797000000
H	   2.0834600000	  14.7543000000	  12.3327000000
N	   3.8241600000	  16.3949000000	  19.0142000000
S	   4.3603100000	  17.7033000000	  18.3132000000
O	   5.7835100000	  18.0028000000	  18.5383000000
O	   3.8150300000	  17.9705000000	  17.0532000000
C	   3.4345600000	  18.9131000000	  19.2794000000
F	   2.2039500000	  19.2885000000	  18.8060000000
F	   4.0873400000	  20.0372000000	  19.2671000000
F	   3.3718200000	  18.7140000000	  20.5950000000
S	   2.8969100000	  15.2364000000	  18.4203000000
O	   2.6906400000	  15.2346000000	  16.9421000000
O	   1.7760900000	  14.8735000000	  19.2181000000
C	   3.9660800000	  13.8058000000	  18.6498000000
F	   5.0797000000	  13.8995000000	  17.9082000000
F	   4.3673600000	  13.5520000000	  19.8542000000
F	   3.4926700000	  12.6183000000	  18.2289000000
