28

Li	  37.6040000000	  38.7799000000	  27.1324000000
O	  36.2039000000	  39.0779000000	  23.2541000000
O	  37.4267000000	  38.7264000000	  25.1016000000
C	  36.5289000000	  40.3182000000	  23.7880000000
C	  37.7310000000	  40.0133000000	  24.6428000000
C	  36.6224000000	  38.1244000000	  24.1316000000
H	  36.7564000000	  41.0875000000	  23.0038000000
H	  35.6275000000	  40.6288000000	  24.3811000000
H	  38.6016000000	  39.8788000000	  23.9490000000
H	  38.0172000000	  40.7696000000	  25.3985000000
H	  35.8394000000	  37.5734000000	  24.5761000000
H	  37.1687000000	  37.3727000000	  23.6598000000
S	  35.6074000000	  38.8198000000	  27.8309000000
S	  36.3460000000	  40.8199000000	  28.3814000000
S	  34.9554000000	  41.8720000000	  29.6460000000
S	  30.4701000000	  41.9646000000	  28.0835000000
S	  30.6880000000	  40.0445000000	  28.6175000000
S	  29.4186000000	  38.6654000000	  27.6500000000
S	  31.7775000000	  43.1476000000	  29.2542000000
S	  33.7708000000	  43.1391000000	  28.5157000000
S	  41.4249000000	  33.9585000000	  19.9777000000
S	  41.3466000000	  32.2941000000	  21.4312000000
S	  40.7206000000	  32.8233000000	  23.3356000000
S	  41.8074000000	  36.3119000000	  26.4780000000
S	  39.8367000000	  37.0314000000	  26.4793000000
S	  39.0819000000	  37.7105000000	  28.3477000000
S	  41.8965000000	  34.1562000000	  26.5258000000
S	  42.3853000000	  33.2837000000	  24.6382000000
