46

Li	   2.7275500000	  19.4099000000	  56.1278000000
O	   2.7589200000	  15.4890000000	  56.7405000000
O	   2.7270500000	  17.6621000000	  56.9583000000
C	   3.7907600000	  15.7784000000	  57.7157000000
C	   3.8103700000	  17.2988000000	  57.7579000000
C	   2.0520100000	  16.5919000000	  56.5746000000
H	   3.6556700000	  15.1761000000	  58.6084000000
H	   4.7486700000	  15.4961000000	  57.2926000000
H	   3.7342700000	  17.6337000000	  58.8002000000
H	   4.6831300000	  17.7311000000	  57.3186000000
H	   1.9687200000	  16.7526000000	  55.5260000000
H	   1.0529200000	  16.5714000000	  57.0088000000
O	   3.9061800000	  21.8244000000	  59.0208000000
O	   3.1947900000	  20.1930000000	  57.6905000000
C	   5.0665200000	  21.4116000000	  58.3555000000
C	   4.3640000000	  20.7406000000	  57.2044000000
C	   3.1096100000	  20.6537000000	  58.9892000000
H	   5.7376100000	  22.1786000000	  57.8546000000
H	   5.7086000000	  20.6707000000	  58.8601000000
H	   4.2714700000	  21.4456000000	  56.3184000000
H	   5.0968400000	  20.0173000000	  56.8770000000
H	   3.5603900000	  19.8414000000	  59.6071573235
H	   2.0928400000	  20.7009000000	  59.1206000000
N	   0.2085926765	  22.4176000000	  56.5945000000
S	  -0.0921073235	  20.9197000000	  56.5609000000
O	   0.8169926765	  20.1327000000	  55.7453000000
O	  -0.5667073235	  20.3618000000	  57.8154000000
C	  -1.6063073235	  20.8603000000	  55.5736000000
F	  -2.2352073235	  19.6955000000	  55.5314000000
F	  -1.4059073235	  21.2569000000	  54.3131000000
F	  -2.4894073235	  21.7688000000	  56.0513000000
S	   1.5419800000	  23.1771000000	  56.3140000000
O	   2.3249300000	  22.6089000000	  55.2470000000
O	   2.1805400000	  23.6579000000	  57.5048000000
C	   0.8637710000	  24.5733000000	  55.4274000000
F	   1.7340500000	  25.5198000000	  55.2355000000
F	   0.3298926765	  24.2933000000	  54.2609000000
F	  -0.1109073235	  25.2475000000	  56.0602000000
S	   3.2907300000	  19.0771000000	  54.1694000000
S	   4.9964700000	  17.9369000000	  53.7326000000
S	   6.7686000000	  18.4503000000	  54.7156000000
S	  10.0260000000	  15.4244000000	  57.5314000000
S	  10.9579000000	  13.7773000000	  56.7408000000
S	  12.0420000000	  12.8288000000	  58.2492000000
S	   9.4508500000	  16.8529000000	  56.2270000000
S	   7.3792300000	  16.9385000000	  56.0919000000
