54

Li	  34.2430000000	  56.2186000000	  44.5800000000
N	  32.5626000000	  53.4418000000	  41.3757000000
S	  32.6612000000	  54.5743000000	  40.3067000000
O	  31.5716000000	  55.5004000000	  40.4025000000
O	  33.9689000000	  55.0725000000	  40.0397000000
C	  32.3431000000	  53.6545000000	  38.7761000000
F	  32.5490000000	  54.2529000000	  37.5742000000
F	  31.0834000000	  53.2569000000	  38.7511000000
F	  33.0219000000	  52.4681000000	  38.6766000000
S	  33.3337000000	  53.2559000000	  42.7311000000
O	  33.4929000000	  54.4125000000	  43.5806000000
O	  34.4594000000	  52.3233000000	  42.5794000000
C	  32.1884000000	  52.2974000000	  43.7722000000
F	  31.1264000000	  52.9956000000	  44.0134000000
F	  31.7661000000	  51.1981000000	  43.2699000000
F	  32.7386000000	  52.0960000000	  44.9444000000
N	  33.6124000000	  58.4454000000	  48.4064000000
S	  34.7704000000	  57.6846000000	  49.2205000000
O	  34.3289000000	  56.9011000000	  50.3292000000
O	  35.8697000000	  57.1401000000	  48.4299000000
C	  35.6482000000	  59.0933000000	  49.9558000000
F	  34.8476000000	  59.9891373235	  50.5945000000
F	  36.1502000000	  59.8078773235	  49.0407000000
F	  36.5773000000	  58.7527000000	  50.7870000000
S	  33.2690000000	  58.3820000000	  46.8572000000
O	  33.8978000000	  57.2982000000	  46.1546000000
O	  33.0593000000	  59.6466073235	  46.1634000000
C	  31.5670000000	  57.7197000000	  47.0069000000
F	  30.9864000000	  57.5416000000	  45.8125000000
F	  31.5980000000	  56.4604000000	  47.4912000000
F	  30.7837000000	  58.5149000000	  47.6810000000
N	  36.2908000000	  52.7503000000	  45.6047000000
S	  37.6091000000	  52.6467000000	  44.7752000000
O	  37.4498000000	  51.8686000000	  43.5946000000
O	  38.4071000000	  53.8748000000	  44.8426000000
C	  38.6317000000	  51.5379000000	  45.7701000000
F	  39.8244000000	  51.3758000000	  45.2800000000
F	  38.0379000000	  50.2926000000	  45.8180000000
F	  38.6982000000	  51.9628000000	  47.0554000000
S	  35.8308000000	  53.8924000000	  46.5572000000
O	  34.7302000000	  54.6630000000	  46.0229000000
O	  36.8697000000	  54.6381000000	  47.2200000000
C	  35.1745000000	  52.9968000000	  47.9630000000
F	  34.5311000000	  51.9147000000	  47.6377000000
F	  36.1245000000	  52.6024000000	  48.7788000000
F	  34.3145000000	  53.7346000000	  48.6267000000
S	  30.3825000000	  66.0432973235	  39.4211000000
S	  29.7963000000	  63.9655473235	  39.6336000000
S	  30.1509000000	  63.2545773235	  41.6528000000
S	  32.4008000000	  59.4480273235	  43.1971000000
S	  32.9945000000	  57.4059000000	  43.0494000000
S	  35.0974000000	  56.9138000000	  42.8859000000
S	  32.2506000000	  60.4340673235	  41.4018000000
S	  32.1397000000	  62.5223973235	  41.7732000000
