43

Li	   4.5470100000	  52.6013000000	  26.0133000000
O	   5.0985600000	  53.8870000000	  27.3385000000
O	   6.1737500000	  54.6041000000	  29.1897000000
C	   4.9821200000	  55.3368000000	  27.3745000000
C	   5.6382200000	  55.7671000000	  28.7275000000
C	   5.4680600000	  53.5493000000	  28.6281000000
H	   5.5673000000	  55.7868000000	  26.5589000000
H	   3.9296500000	  55.7138000000	  27.2002000000
H	   6.3548100000	  56.5652000000	  28.6064000000
H	   4.8597900000	  56.0577000000	  29.3926000000
H	   4.4886100000	  53.4303000000	  29.2181000000
H	   6.1408300000	  52.7033000000	  28.7039000000
N	   1.4758400000	  54.9876000000	  27.0066000000
S	   1.1760900000	  54.3076000000	  28.3980000000
O	   1.1360700000	  52.9085000000	  28.2898000000
O	   1.8688700000	  54.8720000000	  29.5286000000
C	  -0.5941073235	  54.6345000000	  28.7057000000
F	  -0.7689073235	  55.9628000000	  28.7472000000
F	  -0.8663073235	  54.0980000000	  29.9544000000
F	  -1.3460073235	  54.1010000000	  27.7395000000
S	   1.8556000000	  54.4352000000	  25.6154000000
O	   0.8219926765	  53.6329000000	  25.0214000000
O	   3.2389900000	  53.9040000000	  25.5028000000
C	   1.8321700000	  56.0654000000	  24.7304000000
F	   2.6233900000	  56.9639000000	  25.3369000000
F	   2.1725100000	  55.9360000000	  23.4370000000
F	   0.5855926765	  56.6038000000	  24.7223000000
S	   2.0195300000	  46.5380000000	  37.1473000000
S	   3.3992900000	  45.8440000000	  35.6579000000
S	   2.7114100000	  46.0452000000	  33.7039000000
S	   4.6587800000	  50.2886000000	  30.9298000000
S	   4.8269500000	  50.0679000000	  28.8218000000
S	   3.5532300000	  51.2075000000	  27.5194000000
S	   3.1548400000	  49.0569000000	  31.7043000000
S	   3.9370200000	  47.1927000000	  32.4174000000
S	  12.1648000000	  52.8679000000	  20.1612000000
S	  12.1999000000	  53.7666000000	  22.0902000000
S	  12.9230000000	  52.5735000000	  23.7076000000
S	   8.4786700000	  53.0753000000	  25.4272000000
S	   7.0110100000	  51.8376000000	  26.1624000000
S	   5.5564400000	  51.1277000000	  24.6963000000
S	  10.3842000000	  52.4582000000	  25.9653000000
S	  11.3716000000	  51.4154000000	  24.5157000000
