42

Li	  42.5847000000	  32.4614000000	  12.4238000000
O	  41.0441000000	  31.2907000000	  12.4369000000
O	  39.7491000000	  29.9524000000	  11.2529000000
C	  40.9856000000	  30.0632000000	  13.1944000000
C	  40.0852000000	  29.1898000000	  12.3578000000
C	  39.8592000000	  31.2231000000	  11.6822000000
H	  41.9706000000	  29.5927000000	  13.4802000000
H	  40.5698000000	  30.2964000000	  14.1133000000
H	  40.6917000000	  28.3419000000	  12.0839000000
H	  39.2339000000	  28.9181000000	  12.9533000000
H	  38.9563000000	  31.4381000000	  12.2793000000
H	  39.8702000000	  31.9023000000	  10.8503000000
N	  45.8822000000	  32.4045000000	  14.1232000000
S	  44.5283000000	  32.2946000000	  14.8386000000
O	  43.3710000000	  32.7051000000	  14.0808000000
O	  44.4979000000	  31.1652000000	  15.6768000000
C	  44.8432000000	  33.7213000000	  15.9505000000
F	  43.9689000000	  33.8480000000	  16.9079000000
F	  44.8578000000	  34.8863000000	  15.3380000000
F	  46.0217000000	  33.5861000000	  16.5450000000
S	  46.2017000000	  32.6260000000	  12.6474000000
O	  45.3472000000	  33.5176000000	  11.8627000000
O	  46.8717000000	  31.5512000000	  11.8984000000
C	  47.6649000000	  33.5810000000	  13.0174000000
F	  47.4331000000	  34.5020000000	  13.9541000000
F	  48.7038000000	  32.8644000000	  13.4076000000
F	  48.1040000000	  34.2058000000	  11.9149000000
N	  44.3383000000	  30.3385000000	   9.4118000000
S	  43.3270000000	  31.5491000000	   9.1246300000
O	  42.4035000000	  31.3402000000	   8.0236100000
O	  42.9180000000	  32.3217000000	  10.3104000000
C	  44.5116000000	  32.7178000000	   8.3538800000
F	  45.0860000000	  32.1887000000	   7.2422000000
F	  45.4379000000	  33.1122000000	   9.1858400000
F	  43.8607000000	  33.8075000000	   7.9211500000
S	  44.5522000000	  29.4463000000	  10.6789000000
O	  44.0660000000	  30.0673000000	  11.8675000000
O	  45.8260000000	  28.8134000000	  10.7585000000
C	  43.4666000000	  27.9972000000	  10.3998000000
F	  42.2239000000	  28.3252000000	  10.0645000000
F	  43.9104000000	  27.2963000000	   9.3851400000
F	  43.3549000000	  27.2820000000	  11.4962000000
