39

Li	  18.2286000000	   9.3546600000	  18.2389000000
N	  15.5363000000	   8.9475300000	  15.1697000000
S	  15.6910000000	   7.9722100000	  13.9303000000
O	  14.4965000000	   7.9162500000	  13.1504000000
O	  16.9621000000	   8.0583300000	  13.2945000000
C	  15.7053000000	   6.3714800000	  14.7826000000
F	  14.5950000000	   6.1193400000	  15.4540000000
F	  16.6068000000	   6.4263800000	  15.7601000000
F	  15.9444000000	   5.2851600000	  14.0217000000
S	  16.4094000000	  10.1606000000	  15.6708000000
O	  16.7949000000	  11.0459000000	  14.6069000000
O	  17.4438000000	   9.8137500000	  16.6345000000
C	  15.0846000000	  10.9935000000	  16.7328000000
F	  13.9847000000	  11.2887000000	  16.0243000000
F	  14.6283000000	  10.2828000000	  17.7295000000
F	  15.5370000000	  12.1642000000	  17.2263000000
N	  18.9614000000	  12.7216000000	  18.8859000000
S	  17.7548000000	  12.1321000000	  19.6150000000
O	  16.7117000000	  13.0933000000	  19.8527000000
O	  17.4811000000	  10.7769000000	  19.2366000000
C	  18.4139000000	  12.0168000000	  21.3647000000
F	  18.9724000000	  13.1607000000	  21.7091000000
F	  19.2675000000	  11.0725000000	  21.5822000000
F	  17.4517000000	  11.7762000000	  22.2966000000
S	  19.9199000000	  12.0623000000	  17.8744000000
O	  20.0460000000	  12.6309000000	  16.5321000000
O	  20.0487000000	  10.6390000000	  17.9650000000
C	  21.4807000000	  12.6644000000	  18.6167000000
F	  21.5195000000	  13.9991000000	  18.6844000000
F	  21.8216000000	  12.2014000000	  19.7824000000
F	  22.5352000000	  12.4230000000	  17.7843000000
S	  19.0648000000	   8.1189200000	  19.9072000000
S	  17.4923000000	   7.0404700000	  18.9063000000
S	  15.7244000000	   7.0754600000	  20.0722000000
S	  14.6952000000	   4.0193400000	  24.2101000000
S	  14.1677000000	   5.0497300000	  25.9570000000
S	  12.2678000000	   4.6711200000	  26.8255000000
S	  14.0792000000	   4.9335600000	  22.4218000000
S	  15.5007000000	   5.1005600000	  20.7936000000
