43

Li	  33.7927000000	   6.5925400000	  34.2455000000
O	  29.9905000000	   7.9333900000	  32.5407000000
O	  32.1306000000	   7.3994000000	  33.2507000000
C	  30.7731000000	   8.9168700000	  31.8674000000
C	  32.2141000000	   8.5055800000	  32.3536000000
C	  30.7456000000	   7.4911800000	  33.6874000000
H	  30.4882000000	   8.7962700000	  30.8299000000
H	  30.5691000000	   9.9358500000	  32.2362000000
H	  32.7902000000	   8.2824000000	  31.4748000000
H	  32.6583000000	   9.4037500000	  32.7862000000
H	  30.5096000000	   8.2475600000	  34.3950000000
H	  30.3768000000	   6.5184700000	  34.0896000000
N	  37.5610000000	   7.9478200000	  32.5393000000
S	  36.0164000000	   7.9580500000	  32.2410000000
O	  35.2527000000	   7.0465500000	  33.0399000000
O	  35.5233000000	   9.3149400000	  32.0643000000
C	  36.0118000000	   7.2162600000	  30.5702000000
F	  34.7589000000	   7.0912200000	  30.2385000000
F	  36.5988000000	   6.0086600000	  30.5081000000
F	  36.5192000000	   7.9910700000	  29.6677000000
S	  38.1680000000	   7.9075200000	  33.9793000000
O	  37.5704000000	   6.8536100000	  34.8394000000
O	  38.2438000000	   9.2080600000	  34.5481000000
C	  39.8776000000	   7.2712700000	  33.7020000000
F	  39.8006000000	   6.2266000000	  33.0037000000
F	  40.5988000000	   8.1706900000	  32.9957000000
F	  40.5380000000	   6.9133800000	  34.7098000000
S	  26.5475000000	   6.0677800000	  40.2787000000
S	  28.4700000000	   6.2077700000	  39.3514000000
S	  28.4964000000	   7.5882900000	  37.7451000000
S	  33.2453000000	   9.3596900000	  37.5223000000
S	  34.6194000000	   8.8210200000	  36.0633000000
S	  34.8305000000	   6.7823100000	  36.1652000000
S	  31.3420000000	   9.3505600000	  36.7698000000
S	  29.8754000000	   9.1493000000	  38.2766000000
S	  36.0934000000	   2.0076900000	  40.5274000000
S	  34.8683000000	   0.3498926765	  39.8761000000
S	  32.7398000000	   0.6314926765	  40.1872000000
S	  32.7757000000	   3.6486500000	  36.5360000000
S	  31.7766000000	   4.0503800000	  34.6814000000
S	  33.1367000000	   4.3976900000	  33.0557000000
S	  31.4994000000	   3.0923800000	  38.0435000000
S	  31.7108000000	   1.0352900000	  38.3608000000
