32

Li	  25.1452000000	  25.9296000000	  36.2106000000
N	  22.8476000000	  23.1229000000	  35.7420000000
S	  22.3386000000	  24.4100000000	  35.0970000000
O	  20.9348000000	  24.6067000000	  35.2470000000
O	  23.2225000000	  25.5166000000	  35.2923000000
C	  22.4652000000	  24.0490000000	  33.2543000000
F	  22.1940000000	  25.0775000000	  32.5493000000
F	  21.5355000000	  23.1727000000	  32.8778000000
F	  23.6817000000	  23.5795000000	  32.8943000000
S	  24.2522000000	  22.8695000000	  36.5150000000
O	  24.0861000000	  22.3983000000	  37.8571000000
O	  25.2553000000	  23.8815000000	  36.2270000000
C	  24.8458000000	  21.4436000000	  35.5596000000
F	  24.1355000000	  20.3496000000	  35.8430000000
F	  24.7902000000	  21.6381000000	  34.2328000000
F	  26.0939000000	  21.2567000000	  35.7589000000
S	  31.1326000000	  20.7120000000	  42.0405000000
S	  31.6945000000	  22.6817000000	  41.5753000000
S	  30.1710000000	  24.1318000000	  41.5704000000
S	  26.2917000000	  25.6434000000	  39.8026000000
S	  24.6467000000	  25.9988000000	  38.4796000000
S	  24.7348000000	  27.7720000000	  37.4343000000
S	  27.8053000000	  24.5697000000	  38.8579000000
S	  29.7621000000	  25.0798000000	  39.6748000000
S	  27.1812000000	  26.6596000000	  35.3496000000
S	  26.6156000000	  26.2380000000	  33.3252000000
S	  26.8973000000	  24.2100000000	  32.8764000000
S	  28.0089000000	  22.9406000000	  28.0812000000
S	  29.6586000000	  22.9862000000	  26.7795000000
S	  29.3844000000	  23.7985000000	  24.7996000000
S	  27.9539000000	  24.5225000000	  29.3493000000
S	  28.4525000000	  23.9825000000	  31.4037000000
