32

Li	  27.6119000000	  23.4764000000	  37.3068000000
N	  24.8324000000	  23.8807000000	  34.8642000000
S	  24.1002000000	  24.8390000000	  33.8871000000
O	  22.7805000000	  25.2136000000	  34.3019000000
O	  24.9606000000	  25.8616000000	  33.3418000000
C	  23.8184000000	  23.7205000000	  32.4965000000
F	  24.9404000000	  23.2201000000	  31.9727000000
F	  23.1519000000	  24.3548000000	  31.4775000000
F	  23.0754000000	  22.6639000000	  32.8379000000
S	  24.5561000000	  23.5804000000	  36.3863000000
O	  23.4978000000	  24.3985000000	  36.8990000000
O	  25.8095000000	  23.5135000000	  37.0722000000
C	  23.8452000000	  21.8563000000	  36.3310000000
F	  22.8306000000	  21.7898000000	  35.4212000000
F	  24.7503000000	  20.8781000000	  36.0101000000
F	  23.4798000000	  21.5459000000	  37.5972000000
S	  34.0436000000	  21.3007000000	  43.4796000000
S	  35.2843000000	  22.9985000000	  43.3697000000
S	  34.3774000000	  24.8781000000	  43.9809000000
S	  30.9736000000	  24.8381000000	  40.5321000000
S	  28.8135000000	  24.6229000000	  40.6396000000
S	  27.7213000000	  25.0158000000	  38.8919000000
S	  31.7107000000	  26.2819000000	  41.9749000000
S	  33.8200000000	  26.1536000000	  42.2916000000
S	  28.8132000000	  21.8198000000	  37.2818000000
S	  29.7471000000	  23.4681000000	  36.4026000000
S	  28.5056000000	  24.2111000000	  34.8579000000
S	  27.3725000000	  24.1728000000	  29.8479000000
S	  28.2630000000	  24.4302000000	  27.9845000000
S	  27.0029000000	  25.4885000000	  26.6421000000
S	  28.3222000000	  25.2173000000	  31.4542000000
S	  29.3295000000	  24.0205000000	  32.9205000000
