39

Li	  50.6306000000	  39.7227000000	  11.1465000000
N	  48.3321000000	  39.0247000000	   8.0478500000
S	  49.8525000000	  39.4269000000	   7.9463700000
O	  50.2995000000	  40.1078000000	   9.0956900000
O	  50.7293000000	  38.4663000000	   7.3591500000
C	  49.8308000000	  40.7209000000	   6.6734600000
F	  49.5195000000	  40.2195000000	   5.4981700000
F	  51.0103000000	  41.2590000000	   6.5175600000
F	  48.9594000000	  41.6323000000	   6.9442900000
S	  47.8093000000	  37.6165000000	   8.5288400000
O	  47.6253000000	  37.6422000000	   9.9282300000
O	  48.4689000000	  36.5299000000	   7.8636700000
C	  46.1722000000	  37.6989000000	   7.7795300000
F	  45.4502000000	  38.8106000000	   8.0589400000
F	  46.1160000000	  37.4813000000	   6.4681500000
F	  45.5136000000	  36.6935000000	   8.3101300000
N	  49.6765000000	  37.8426000000	  14.5007000000
S	  48.9661000000	  37.6747000000	  13.1470000000
O	  49.7296000000	  38.3204000000	  12.0859000000
O	  48.3487000000	  36.3979000000	  13.0124000000
C	  47.6331000000	  38.9212000000	  13.4818000000
F	  46.9764000000	  39.3198000000	  12.3917000000
F	  48.1828000000	  40.0036000000	  14.0394000000
F	  46.7071000000	  38.4968000000	  14.3393000000
S	  49.3296000000	  37.0396000000	  15.8278000000
O	  50.5078000000	  36.4046000000	  16.3190000000
O	  48.0214000000	  36.3946000000	  15.8128000000
C	  48.9020000000	  38.3217000000	  17.0506000000
F	  49.8888000000	  39.2036000000	  17.0805000000
F	  47.7428000000	  38.8932000000	  16.8631000000
F	  49.0185000000	  37.7961000000	  18.2754000000
S	  52.5108000000	  49.2700000000	  16.2953000000
S	  51.7547000000	  47.4339000000	  15.8157000000
S	  52.2512000000	  45.7168000000	  17.0885000000
S	  51.2295000000	  41.1479000000	  14.3833000000
S	  51.4986000000	  41.5584000000	  12.3566000000
S	  52.6878000000	  40.0733000000	  11.5144000000
S	  52.4451000000	  42.6490000000	  15.3941000000
S	  51.2072000000	  44.0285000000	  16.5099000000
