34

Li	   5.6756300000	   7.3499700000	   5.1080700000
O	   6.7961000000	   8.8245100000	   8.6046800000
O	   5.8192600000	   8.3828900000	   6.5897500000
C	   6.8504100000	  10.1058000000	   7.9554200000
C	   6.3236500000	   9.6933500000	   6.5809200000
C	   5.7282700000	   8.1193700000	   7.9881500000
H	   6.0746100000	  10.6630000000	   8.4632600000
H	   7.8181400000	  10.5986000000	   8.0400300000
H	   5.6466800000	  10.4432000000	   6.1377500000
H	   7.2024400000	   9.5646700000	   5.9786800000
H	   5.6852800000	   7.0989200000	   8.1920000000
H	   4.7632000000	   8.5994600000	   8.2188000000
O	   4.0570300000	   3.8795800000	   5.9027000000
O	   5.3532700000	   5.6780300000	   5.7560600000
C	   5.1015300000	   3.4917000000	   5.0130400000
C	   6.0651500000	   4.5849700000	   5.2581800000
C	   4.0847200000	   5.2551700000	   5.9191200000
H	   5.6286600000	   2.6095400000	   5.2903800000
H	   4.8781400000	   3.5217300000	   3.9195800000
H	   6.7938300000	   4.1795800000	   5.9286900000
H	   6.5193800000	   4.8368400000	   4.3475900000
H	   3.5233100000	   5.4410000000	   5.0241500000
H	   3.6467800000	   5.6068400000	   6.8970400000
O	   6.8890700000	   8.9365200000	   1.2218600000
O	   6.2524100000	   7.9612500000	   3.1447900000
C	   5.5100200000	   8.8788200000	   1.2061200000
C	   5.2388800000	   8.8411300000	   2.7036900000
C	   7.2763600000	   8.0491700000	   2.2162400000
H	   5.1962500000	   9.8050900000	   0.7525926765
H	   5.2056700000	   7.9501500000	   0.7235926765
H	   5.3965300000	   9.8605400000	   3.1065500000
H	   4.2347800000	   8.4051800000	   2.8755900000
H	   7.4401600000	   7.0335400000	   1.7913300000
H	   8.2578300000	   8.4253300000	   2.5380600000
