64

Li	   4.5556000000	  44.2279000000	  25.9949000000
O	   5.7954800000	  45.5225000000	  25.6701000000
O	   6.6244800000	  47.5260000000	  25.0964000000
C	   6.9923400000	  45.6201000000	  26.3810000000
C	   7.6577000000	  46.8369000000	  25.7892000000
C	   5.9054700000	  46.4660000000	  24.5912000000
H	   6.6880400000	  45.7449000000	  27.4167000000
H	   7.6663000000	  44.8207000000	  26.2318000000
H	   8.1621900000	  47.4595000000	  26.5471000000
H	   8.3832700000	  46.5511000000	  25.0439000000
H	   6.4473200000	  46.1570000000	  23.6728000000
H	   4.8696700000	  46.7283000000	  24.2409000000
O	   5.7156600000	  42.9448000000	  27.0737000000
O	   6.6468900000	  41.1414000000	  27.7638000000
C	   4.6348300000	  42.0154000000	  27.3511000000
C	   5.2963300000	  40.7388000000	  27.7113000000
C	   6.7498800000	  42.4863000000	  27.8210000000
H	   3.9715000000	  42.3121000000	  28.1216000000
H	   4.1403100000	  41.7172000000	  26.4254000000
H	   5.0026500000	  40.3738000000	  28.7373000000
H	   5.1179800000	  39.8365000000	  27.0127000000
H	   7.7033000000	  42.8952000000	  27.6457000000
H	   6.5245000000	  42.6678000000	  28.8232000000
O	   2.8976100000	  44.2960000000	  25.4364000000
O	   0.9758710000	  45.5092000000	  25.2724000000
C	   2.0782500000	  43.8296000000	  24.3173000000
C	   0.7361926765	  44.3734000000	  24.4950000000
C	   2.0143100000	  45.1599000000	  26.1308000000
H	   2.4218100000	  44.1474000000	  23.3771000000
H	   1.9985200000	  42.7413000000	  24.3878000000
H	   0.2912926765	  44.6710000000	  23.5785000000
H	   0.1973926765	  43.5888000000	  25.0725000000
H	   1.5176600000	  44.6975000000	  27.0426000000
H	   2.5209000000	  46.1819000000	  26.4129000000
N	   2.9873200000	  46.5485000000	  30.0078000000
S	   2.8311900000	  47.8675000000	  30.9223000000
O	   4.0972800000	  48.3570000000	  31.3604000000
O	   1.8519100000	  48.7894000000	  30.4023000000
C	   2.0011300000	  47.0392000000	  32.3544000000
F	   0.8301926765	  46.4685000000	  32.0786000000
F	   1.8257800000	  47.7952000000	  33.3099000000
F	   2.7613100000	  46.0143000000	  32.7243000000
S	   4.2109800000	  46.2257000000	  29.0551000000
O	   4.8639600000	  47.3907000000	  28.5088000000
O	   4.0457400000	  45.0902000000	  28.2346000000
C	   5.4744800000	  45.6894000000	  30.1459000000
F	   5.9402300000	  46.6437000000	  30.8505000000
F	   5.0710700000	  44.7881000000	  30.9751000000
F	   6.5469600000	  45.1563000000	  29.5267000000
N	   4.2579300000	  40.7475000000	  21.7632000000
S	   4.7797400000	  42.1869000000	  21.5896000000
O	   5.8525800000	  42.2198000000	  20.5597000000
O	   3.7293100000	  43.2142000000	  21.6206000000
C	   5.6745800000	  42.3344000000	  23.2391000000
F	   6.5978300000	  43.2387000000	  23.2011000000
F	   6.3607700000	  41.2279000000	  23.4749000000
F	   4.9341800000	  42.6725000000	  24.3420000000
S	   4.5957100000	  39.4861000000	  20.8744000000
O	   5.8798900000	  38.9069000000	  21.1673000000
O	   4.1899700000	  39.6796000000	  19.4933000000
C	   3.3556700000	  38.2136000000	  21.3644000000
F	   3.5660300000	  37.1625000000	  20.6071000000
F	   3.4478600000	  37.7562000000	  22.6037000000
F	   2.1371700000	  38.6068000000	  21.2534000000
