54

Li	  49.9657000000	  51.2334000000	  16.9776000000
N	  52.1253000000	  54.5875000000	  17.7858000000
S	  50.5662000000	  54.3610000000	  17.9807000000
O	  49.6800000000	  55.3011000000	  17.3700000000
O	  50.2927000000	  52.9392000000	  17.9220000000
C	  50.3477000000	  54.7372000000	  19.6976000000
F	  51.1403000000	  54.0022000000	  20.4321000000
F	  49.1194000000	  54.5336000000	  20.1271000000
F	  50.6695000000	  55.9970000000	  19.9765000000
S	  52.8253000000	  55.6030000000	  16.8610000000
O	  52.0082000000	  56.7654000000	  16.5451000000
O	  53.6426000000	  54.9785000000	  15.8505000000
C	  54.0222000000	  56.2852000000	  18.0392000000
F	  53.4227000000	  56.8210000000	  19.1128000000
F	  54.9467000000	  55.4835000000	  18.4651000000
F	  54.7524000000	  57.1979000000	  17.4678000000
N	  52.0153000000	  50.5498000000	  19.4248000000
S	  50.7713000000	  49.6271000000	  19.4868000000
O	  49.8100000000	  49.9116000000	  18.4423000000
O	  51.0124000000	  48.2706000000	  19.9575000000
C	  49.8735000000	  50.3475000000	  20.8858000000
F	  49.5056000000	  51.5762000000	  20.5733000000
F	  50.5319000000	  50.3752000000	  22.0224000000
F	  48.7857000000	  49.6581000000	  21.1171000000
S	  53.5143000000	  50.2420000000	  19.7713000000
O	  54.3904000000	  50.2911000000	  18.6288000000
O	  53.7339000000	  49.1819000000	  20.7404000000
C	  54.1146000000	  51.7424000000	  20.5485000000
F	  54.2367000000	  52.7112000000	  19.6736000000
F	  53.3612000000	  52.1989000000	  21.5186000000
F	  55.2711000000	  51.5199000000	  21.0726000000
N	  45.8404000000	  50.0672000000	  17.1343000000
S	  45.7399000000	  49.4235000000	  18.5402000000
O	  44.4262000000	  49.0283000000	  18.8771000000
O	  46.8068000000	  48.6256000000	  19.0969000000
C	  45.9442000000	  50.8921000000	  19.5510000000
F	  45.9702000000	  50.5966000000	  20.8833000000
F	  44.9534000000	  51.7453000000	  19.3376000000
F	  47.0440000000	  51.5805000000	  19.2695000000
S	  47.2022000000	  49.8565000000	  16.2554000000
O	  47.8195000000	  48.5446000000	  16.3824000000
O	  48.0948000000	  51.0051000000	  16.3454000000
C	  46.5221000000	  49.9653000000	  14.4756000000
F	  46.0278000000	  48.8353000000	  14.0619000000
F	  45.5614000000	  50.8286000000	  14.2919000000
F	  47.5067000000	  50.2601000000	  13.6657000000
S	  51.7125000000	  52.3377000000	  15.0625000000
S	  51.1410000000	  50.3740000000	  15.0555000000
S	  52.3382000000	  49.1923000000	  16.3653000000
S	  53.2222000000	  44.4272000000	  17.7260000000
S	  52.5406000000	  42.5526000000	  17.0390000000
S	  54.3007000000	  41.5558000000	  16.2290000000
S	  53.0516000000	  45.8626000000	  16.2744000000
S	  51.6398000000	  47.3127000000	  16.6972000000
