39

Li	  25.5325000000	   8.2209800000	  53.1247000000
O	  25.6684000000	   9.2369600000	  54.7277000000
O	  25.1741000000	  11.3946000000	  55.1947000000
C	  26.8866000000	   9.8872200000	  54.8942000000
C	  26.5187000000	  11.2573000000	  55.4667000000
C	  24.6247000000	  10.1335000000	  55.0170000000
H	  27.5979000000	   9.3265200000	  55.4128000000
H	  27.2822000000	  10.0425000000	  53.8894000000
H	  26.6060000000	  11.2957000000	  56.5339000000
H	  27.3017000000	  11.9360000000	  55.1135000000
H	  23.8393000000	  10.2165000000	  54.2977000000
H	  24.2884000000	   9.7990700000	  56.0085000000
O	  27.8265000000	   7.1217400000	  50.3594000000
O	  27.1609000000	   7.1924200000	  52.5116000000
C	  27.2524000000	   5.8552800000	  50.6253000000
C	  27.1225000000	   5.8799800000	  52.1466000000
C	  28.0362000000	   7.7113000000	  51.6256000000
H	  26.2462000000	   5.7269600000	  50.1736000000
H	  27.9027000000	   5.0216000000	  50.3433000000
H	  26.2346000000	   5.3650300000	  52.5025000000
H	  28.0120000000	   5.4605600000	  52.6327000000
H	  29.0974000000	   7.6819800000	  51.9138000000
H	  27.9452000000	   8.7661500000	  51.5893000000
S	  23.8866000000	   6.6931900000	  54.0130000000
S	  21.7884000000	   7.0736300000	  54.1148000000
S	  21.0871000000	   8.6769700000	  52.7881000000
S	  17.0495000000	  10.8793000000	  53.0648000000
S	  15.7530000000	  12.0735000000	  54.2320000000
S	  14.4640000000	  13.5477000000	  53.3071000000
S	  19.0255000000	  11.6217000000	  52.9980000000
S	  20.4433000000	  10.3287000000	  53.8733000000
S	  25.6251000000	   9.9464000000	  51.4799000000
S	  24.5078000000	   8.2624600000	  50.7358000000
S	  22.9096000000	   8.8390500000	  49.5476000000
S	  20.5732000000	  10.2963000000	  45.8488000000
S	  19.4827000000	  11.9280000000	  46.7183000000
S	  17.4425000000	  11.9113000000	  46.1493000000
S	  22.6706000000	  10.1941000000	  46.3593000000
S	  23.2663000000	   8.4851600000	  47.5455000000
