35

Li	  38.7906000000	  42.3769000000	  42.0672000000
O	  39.9690000000	  42.3942000000	  40.6824000000
O	  41.4169000000	  42.3102000000	  38.8693000000
C	  40.7348000000	  43.5882000000	  40.6278000000
C	  42.0039000000	  43.1488000000	  39.8745000000
C	  40.3391000000	  41.7137000000	  39.5031000000
H	  40.2480000000	  44.2891000000	  40.0265000000
H	  41.0776000000	  44.0703000000	  41.5439000000
H	  42.5349000000	  43.9691000000	  39.2833000000
H	  42.6697000000	  42.5262000000	  40.4881000000
H	  40.6482000000	  40.6932000000	  39.7849000000
H	  39.4594000000	  41.5751000000	  38.8586000000
N	  37.6779000000	  38.6210000000	  43.6989000000
S	  38.2253000000	  39.0036000000	  42.2767000000
O	  38.3683000000	  40.4269000000	  42.1121000000
O	  39.2701000000	  38.1699000000	  41.6952000000
C	  36.8016000000	  38.7391000000	  41.2264000000
F	  37.2062000000	  38.9048000000	  39.9682000000
F	  35.7865000000	  39.5423000000	  41.5324000000
F	  36.2615000000	  37.5290000000	  41.3552000000
S	  37.7992000000	  37.3613000000	  44.5990000000
O	  38.4864000000	  37.4513000000	  45.8658000000
O	  38.1577000000	  36.2045000000	  43.8668000000
C	  36.1323000000	  36.9104000000	  45.0661000000
F	  36.0626000000	  35.7026000000	  45.5203000000
F	  35.6210000000	  37.6904000000	  46.0029000000
F	  35.3068000000	  37.0639000000	  43.9974000000
S	  32.5724000000	  40.7390000000	  35.2408000000
S	  33.5429000000	  41.4416000000	  36.9752000000
S	  35.4604000000	  42.1856000000	  36.8566000000
S	  36.3188000000	  43.5562000000	  41.8446000000
S	  37.8382000000	  44.5195000000	  42.7999000000
S	  39.2819000000	  43.2575000000	  43.7663000000
S	  36.8370000000	  43.5996000000	  39.8309000000
S	  36.6409000000	  41.8516000000	  38.6372000000
