28

Li	  43.8723000000	  32.7560000000	  19.3536000000
O	  45.0541000000	  37.0149000000	  20.6088000000
O	  44.2687000000	  35.0409000000	  19.8825000000
C	  45.7437000000	  36.7555000000	  19.4233000000
C	  44.7082000000	  35.8559000000	  18.7407000000
C	  44.6030000000	  35.7716000000	  20.9831000000
H	  45.9964000000	  37.6998000000	  18.8793000000
H	  46.6208000000	  36.1535000000	  19.6540000000
H	  43.8023000000	  36.3574000000	  18.3360000000
H	  45.0829000000	  35.4561000000	  17.7950000000
H	  45.4044000000	  35.1768000000	  21.4902000000
H	  43.7504000000	  35.7334000000	  21.6203000000
S	  42.4156000000	  33.0925000000	  17.8967000000
S	  41.3004000000	  32.4355000000	  19.5399000000
S	  40.6762000000	  33.8369000000	  20.9138000000
S	  42.6934000000	  36.4457000000	  25.0574000000
S	  41.9196000000	  36.6445000000	  27.0970000000
S	  41.5643000000	  38.5673000000	  27.7536000000
S	  41.1947000000	  35.5508000000	  23.7612000000
S	  41.7471000000	  33.9139000000	  22.6333000000
S	  44.8359000000	  31.7500000000	  20.7381000000
S	  44.3671000000	  30.3160000000	  19.1404000000
S	  45.7400000000	  30.4973000000	  17.4974000000
S	  45.7413000000	  30.3735000000	  12.2820000000
S	  47.8282000000	  30.9500000000	  12.0687000000
S	  49.0855000000	  29.4063000000	  11.3280000000
S	  44.9518000000	  31.0042000000	  14.1671000000
S	  45.1387000000	  29.5425000000	  15.7230000000
