49

Li	   7.0270600000	  24.1648000000	  18.7202000000
O	   5.0730400000	  24.8821000000	  15.7515000000
O	   6.8303200000	  24.1822000000	  16.9702000000
C	   5.3857900000	  23.6243000000	  15.2491000000
C	   6.6750000000	  23.1999000000	  15.9496000000
C	   6.2061300000	  25.2889000000	  16.4066000000
H	   4.5180500000	  23.0368000000	  15.4709000000
H	   5.5627100000	  23.5785000000	  14.1665000000
H	   6.7278000000	  22.1987000000	  16.4036000000
H	   7.4611900000	  23.3712000000	  15.2093000000
H	   6.8705400000	  25.8679000000	  15.7891000000
H	   5.8763100000	  25.8756000000	  17.2616000000
O	   9.5068800000	  22.1300000000	  18.4005000000
O	   8.1907100000	  22.9016000000	  19.9604000000
C	  10.4660000000	  22.6138000000	  19.3595000000
C	   9.5146300000	  23.4218000000	  20.2245000000
C	   8.4000900000	  21.8423000000	  19.1327000000
H	  11.0126000000	  21.7794000000	  19.8075000000
H	  11.1566000000	  23.2432000000	  18.9247000000
H	   9.8399400000	  23.3033000000	  21.2482000000
H	   9.6329900000	  24.5288000000	  19.9800000000
H	   7.6644600000	  21.7333000000	  18.3936000000
H	   8.4812000000	  20.8970000000	  19.6503000000
O	   3.3132800000	  22.0284000000	  20.2339000000
O	   5.0448600000	  23.1227000000	  19.3187000000
C	   2.8999400000	  22.5363000000	  19.0082000000
C	   3.8463500000	  23.7413000000	  18.9066000000
C	   4.6903000000	  22.3310000000	  20.3858000000
H	   3.1499600000	  21.9436000000	  18.1130000000
H	   1.8316300000	  22.8028000000	  18.9638000000
H	   3.8568300000	  24.2074000000	  17.9374000000
H	   3.4718500000	  24.3855000000	  19.5699000000
H	   4.9406500000	  22.9270000000	  21.2808000000
H	   5.3534800000	  21.4757000000	  20.4990000000
N	   7.5687000000	  27.8042000000	  19.8699000000
S	   6.5005300000	  26.8253000000	  20.4256000000
O	   5.2250000000	  27.4458000000	  20.6539000000
O	   6.5538100000	  25.4666000000	  19.9894000000
C	   7.1275900000	  26.5276000000	  22.0881000000
F	   7.1259300000	  27.6162000000	  22.7914000000
F	   8.3448700000	  25.9270000000	  22.1200000000
F	   6.2348500000	  25.6911000000	  22.6571000000
S	   8.5137800000	  27.4264000000	  18.6419000000
O	   8.3847700000	  28.3567000000	  17.5872000000
O	   8.5373900000	  26.0151000000	  18.3552000000
C	  10.1566000000	  27.8538000000	  19.3037000000
F	  10.3312000000	  27.6983000000	  20.5956000000
F	  11.1363000000	  27.1497000000	  18.6610000000
F	  10.3705000000	  29.1313000000	  19.1336000000
