61

Li	  41.1358000000	  48.0365000000	   9.0785800000
N	  44.4863000000	  50.0123000000	   6.7204500000
S	  44.7614000000	  51.1807000000	   5.7052300000
O	  44.7064000000	  50.9452000000	   4.2753600000
O	  44.2700000000	  52.4651000000	   6.2141500000
C	  46.5727000000	  51.4040000000	   5.9276600000
F	  47.2616000000	  50.2894000000	   5.6617200000
F	  46.9147000000	  51.8092000000	   7.1543700000
F	  46.8931000000	  52.3642000000	   5.0802100000
S	  43.6631000000	  48.6546000000	   6.5710300000
O	  43.5434000000	  48.2555000000	   5.2084600000
O	  42.4258000000	  48.6384000000	   7.3780300000
C	  44.8204000000	  47.4220000000	   7.4044100000
F	  44.4419000000	  46.1682000000	   7.4354900000
F	  45.9846000000	  47.4297000000	   6.7047600000
F	  45.0707000000	  47.8363000000	   8.6004100000
N	  41.7434000000	  43.8058000000	   8.2286500000
S	  40.4564000000	  44.6047000000	   7.9877800000
O	  39.2857000000	  43.9638000000	   8.4962000000
O	  40.7195000000	  45.9938000000	   8.2588600000
C	  40.2051000000	  44.5669000000	   6.1639200000
F	  41.0365000000	  45.4145000000	   5.5785300000
F	  38.9868000000	  44.8684000000	   5.7508100000
F	  40.5271000000	  43.3686000000	   5.6846600000
S	  41.9143000000	  42.4760000000	   9.1505300000
O	  40.8179000000	  42.1260000000	   9.9742900000
O	  43.2480000000	  42.4062000000	   9.6549300000
C	  41.9734000000	  41.1487000000	   7.9031400000
F	  42.8761000000	  41.4704000000	   6.9572300000
F	  42.2534000000	  39.9752000000	   8.4586200000
F	  40.7862000000	  41.0534000000	   7.2091500000
N	  39.8696000000	  49.8395000000	   5.8040300000
S	  40.7801000000	  50.9649000000	   5.1021400000
O	  41.2115000000	  52.0890000000	   5.8635400000
O	  41.7631000000	  50.2798000000	   4.2881900000
C	  39.6923000000	  51.7411000000	   3.8318500000
F	  39.2061000000	  50.8482000000	   2.9566000000
F	  40.3293000000	  52.5969000000	   3.0518700000
F	  38.6174000000	  52.3567000000	   4.3183200000
S	  39.1096000000	  49.9215000000	   7.1561300000
O	  38.6491000000	  51.2647000000	   7.4335900000
O	  39.6028000000	  49.0918000000	   8.2064100000
C	  37.6237000000	  48.9958000000	   6.6411300000
F	  36.6245000000	  49.0013000000	   7.5387500000
F	  37.1534000000	  49.4904000000	   5.4955100000
F	  37.7858000000	  47.7499000000	   6.3813100000
N	  41.5802000000	  45.8151000000	  11.9940000000
S	  40.1036000000	  46.1020000000	  11.6555000000
O	  39.7710000000	  47.3179000000	  10.9535000000
O	  39.4027000000	  44.9217000000	  11.3515000000
C	  39.5352000000	  46.4358000000	  13.4073000000
F	  39.9780000000	  45.6302000000	  14.2840000000
F	  38.1957000000	  46.4904000000	  13.4950000000
F	  39.9251000000	  47.6167000000	  13.8530000000
S	  42.9033000000	  46.1951000000	  11.2410000000
O	  42.7856000000	  47.1385000000	  10.1863000000
O	  43.6399000000	  44.9800000000	  11.0138000000
C	  43.9430000000	  47.0122000000	  12.5399000000
F	  44.1772000000	  46.2591000000	  13.6333000000
F	  45.1386000000	  47.3568000000	  12.1017000000
F	  43.4432000000	  48.1529000000	  13.0289000000
