57

Li	  42.6848000000	   5.7694700000	  42.7382000000
O	  44.2932000000	   5.1070900000	  43.7060000000
O	  44.3558000000	   3.3783700000	  45.0971000000
C	  44.8318000000	   5.5930300000	  44.9839000000
C	  44.4133000000	   4.5192700000	  45.9362000000
C	  44.6161000000	   3.7642600000	  43.7768000000
H	  45.9349000000	   5.7661100000	  44.8767000000
H	  44.4220000000	   6.5996600000	  45.3060000000
H	  45.1375000000	   4.2612600000	  46.7056000000
H	  43.4458000000	   4.7885800000	  46.4326000000
H	  43.9829000000	   3.1969300000	  43.0758000000
H	  45.6954000000	   3.6646000000	  43.4520000000
N	  39.7969000000	   8.3768700000	  43.5925000000
S	  40.5770000000	   7.9557900000	  44.8486000000
O	  39.7107000000	   7.5212900000	  45.8758000000
O	  41.8036000000	   7.2291600000	  44.6792000000
C	  41.1256000000	   9.5698400000	  45.5170000000
F	  40.0789000000	  10.2886000000	  45.7979000000
F	  41.8590000000	  10.3287000000	  44.6751000000
F	  41.8833000000	   9.5287200000	  46.6118000000
S	  39.9274000000	   7.7298400000	  42.1958000000
O	  38.7408000000	   7.1364700000	  41.7183000000
O	  41.1870000000	   7.0357500000	  42.0304000000
C	  40.0834000000	   9.1979800000	  41.1888000000
F	  38.8699000000	   9.7303800000	  40.9852000000
F	  40.9493000000	  10.0765000000	  41.7548000000
F	  40.5535000000	   8.8718800000	  40.0472000000
N	  40.8485000000	   2.1183000000	  42.5616000000
S	  40.3153000000	   1.4181900000	  41.2777000000
O	  39.3741000000	   0.3648926765	  41.4772000000
O	  40.1707000000	   2.3514300000	  40.1801000000
C	  41.8649000000	   0.6595926765	  40.7837000000
F	  42.2215000000	  -0.2906073235	  41.6331000000
F	  42.8471000000	   1.5353000000	  40.8080000000
F	  41.7972000000	   0.0361926765	  39.6036000000
S	  40.3122000000	   3.5053900000	  43.1431000000
O	  38.9969000000	   3.9784900000	  42.5979000000
O	  41.4155000000	   4.5233100000	  43.1983000000
C	  40.1546000000	   3.2455600000	  44.9617000000
F	  39.9975000000	   4.3781600000	  45.6146000000
F	  39.0726000000	   2.5709300000	  45.3121000000
F	  41.1573000000	   2.5901600000	  45.4509000000
N	  43.4001000000	   5.7546900000	  38.1521000000
S	  44.1131000000	   5.1410600000	  39.3882000000
O	  43.3363000000	   4.7577000000	  40.5436000000
O	  45.1642000000	   4.1932200000	  39.0813000000
C	  44.9424000000	   6.6386900000	  40.0042000000
F	  44.0638000000	   7.4318700000	  40.5125000000
F	  45.6679000000	   7.3136700000	  39.1198000000
F	  45.7734000000	   6.3380300000	  41.0317000000
S	  42.1816000000	   5.1510200000	  37.2926000000
O	  41.5419000000	   4.0146700000	  37.9135000000
O	  42.5208000000	   5.1865300000	  35.8994000000
C	  40.9991000000	   6.4996800000	  37.4972000000
F	  40.7257000000	   6.7329000000	  38.7499000000
F	  41.3894000000	   7.6041000000	  36.8868000000
F	  39.8935000000	   6.2335000000	  36.9196000000
