46

Li	  46.6240000000	  33.7419000000	   2.8756700000
O	  50.2230000000	  34.0367000000	   0.9932860000
O	  48.3770000000	  34.0782000000	   2.3057300000
C	  50.7564000000	  33.8755000000	   2.2794300000
C	  49.5523000000	  34.3487000000	   3.0458200000
C	  48.9014000000	  33.6277000000	   1.1393000000
H	  50.8946000000	  32.8600000000	   2.5407600000
H	  51.5978000000	  34.4528000000	   2.4282100000
H	  49.5863000000	  34.0271000000	   4.1029100000
H	  49.6355000000	  35.3897000000	   3.0893600000
H	  48.1594000000	  34.0347000000	   0.4574926765
H	  48.8241000000	  32.5307000000	   1.1299600000
O	  45.9866000000	  37.9489000000	   3.0838300000
O	  46.3436000000	  35.6734000000	   3.2327900000
C	  46.0482000000	  37.6673000000	   4.4619200000
C	  46.5720000000	  36.2324000000	   4.5217800000
C	  45.7461000000	  36.7146000000	   2.4840100000
H	  46.5721000000	  38.4650000000	   4.9649600000
H	  45.1147000000	  37.5932000000	   4.8950200000
H	  47.6970000000	  36.3460000000	   4.6346100000
H	  46.3206000000	  35.5270000000	   5.3274200000
H	  44.6658000000	  36.5156000000	   2.4156200000
H	  46.1494000000	  36.6840000000	   1.4837700000
N	  46.5241000000	  31.6154000000	   0.1986926765
S	  45.6875000000	  32.9615000000	  -0.0418073235
O	  45.8640000000	  33.9491000000	   1.0562000000
O	  45.8499000000	  33.4623000000	  -1.3740073235
C	  43.9371000000	  32.3859000000	   0.1011926765
F	  43.5088000000	  31.7819000000	  -0.9827073235
F	  43.1872000000	  33.4952000000	   0.2578926765
F	  43.6684000000	  31.5868000000	   1.1506900000
S	  46.9273000000	  30.5352000000	  -0.8832073235
O	  47.9198000000	  30.8667000000	  -1.8661073235
O	  45.8758000000	  29.6625000000	  -1.3315073235
C	  47.8873000000	  29.4292000000	   0.2514926765
F	  47.1557000000	  28.9804000000	   1.2507100000
F	  48.3648000000	  28.3619000000	  -0.3441073235
F	  48.8366000000	  30.1635000000	   0.7872926765
S	  39.6436000000	  30.5538000000	  12.2194000000
S	  41.5410000000	  31.0332000000	  11.3904000000
S	  41.6533000000	  30.1769000000	   9.4660100000
S	  43.4572000000	  31.8486000000	   5.4163200000
S	  44.8393000000	  32.9911000000	   4.3317800000
S	  46.5235000000	  31.8215000000	   3.6844300000
S	  42.8061000000	  32.6691000000	   7.2459200000
S	  41.1419000000	  31.5972000000	   8.0206200000
