39

Li	   6.7479800000	  49.0962000000	  17.5752000000
O	  10.8994000000	  50.7705000000	  17.1293000000
O	   8.6807200000	  50.3853000000	  16.9973000000
C	  10.2318000000	  52.0369000000	  17.0481000000
C	   8.9283000000	  51.6604000000	  16.4292000000
C	   9.9473900000	  49.8155000000	  17.1138000000
H	  10.2407000000	  52.6407000000	  17.9305000000
H	  10.8492000000	  52.6466000000	  16.4099000000
H	   8.1871400000	  52.4448000000	  16.4901000000
H	   9.0914200000	  51.4376000000	  15.3631000000
H	  10.1444000000	  49.2794000000	  16.1271000000
H	  10.0826000000	  49.0736000000	  17.9248000000
O	   6.6894700000	  48.0410000000	  19.2418000000
O	   6.0648600000	  47.6523000000	  21.3239000000
C	   7.8777600000	  48.0136000000	  20.1026000000
C	   7.4464600000	  47.5126000000	  21.4790000000
C	   5.6603800000	  47.4824000000	  20.0300000000
H	   8.6639600000	  47.3205000000	  19.7295000000
H	   8.2832200000	  49.0423000000	  20.0940000000
H	   7.5828200000	  46.4351000000	  21.6816000000
H	   7.7838500000	  48.1450000000	  22.3162000000
H	   4.7088900000	  48.0042000000	  19.9673000000
H	   5.6205600000	  46.4066000000	  19.7346000000
S	   5.3508200000	  48.7512000000	  15.7438000000
S	   6.0693500000	  46.8513000000	  16.4732000000
S	   8.1995100000	  46.7619000000	  16.7653000000
S	  12.1914000000	  45.2444000000	  13.7413000000
S	  13.9443000000	  44.8993000000	  15.0157000000
S	  15.4678000000	  46.1759000000	  14.2533000000
S	  10.8525000000	  46.7367000000	  14.3986000000
S	   8.9568300000	  46.0109000000	  14.9208000000
S	  13.1702000000	  48.2427000000	  17.0228000000
S	  13.7821000000	  48.7355000000	  18.9962000000
S	  12.0265000000	  48.3916000000	  20.1652000000
S	   8.5439100000	  51.6513000000	  21.0655000000
S	   7.3042300000	  52.2964000000	  19.5619000000
S	   6.0843200000	  50.8947000000	  18.5754000000
S	  10.5722000000	  51.6569000000	  20.5343000000
S	  11.6501000000	  50.1135000000	  21.3554000000
