39

Li	   6.6634200000	  50.1852000000	  22.7491000000
O	   8.8249000000	  52.7915000000	  20.5150000000
O	   7.2827500000	  51.4192000000	  21.4036000000
C	   7.6095200000	  52.8994000000	  19.7545000000
C	   6.9762500000	  51.5036000000	  20.0736000000
C	   8.5018800000	  52.0989000000	  21.6896000000
H	   7.0401400000	  53.7120000000	  20.1952000000
H	   7.8451100000	  53.0459000000	  18.7489000000
H	   5.9598800000	  51.3829000000	  19.7687000000
H	   7.5027300000	  50.7437000000	  19.4590000000
H	   9.2617900000	  51.3144000000	  21.8621000000
H	   8.5435300000	  52.7836000000	  22.5185000000
O	   7.6712200000	  48.6602000000	  23.6246000000
O	   9.0017000000	  47.4691000000	  25.0205000000
C	   6.7847800000	  47.8601000000	  24.3236000000
C	   7.7518800000	  46.8189000000	  24.9276000000
C	   8.7835100000	  48.7019000000	  24.4508000000
H	   6.3473200000	  48.3867000000	  25.1998000000
H	   5.9590000000	  47.4383000000	  23.8198000000
H	   7.4019900000	  46.4151000000	  25.8915000000
H	   7.7196600000	  45.9456000000	  24.2449000000
H	   9.7080300000	  49.0753000000	  23.9785000000
H	   8.6542800000	  49.4857000000	  25.2315000000
S	   4.6799900000	  49.2451000000	  22.0332000000
S	   5.3452700000	  48.6104000000	  20.1671000000
S	   7.2409000000	  47.6910000000	  20.2218000000
S	  11.9936000000	  48.3708000000	  19.7967000000
S	  13.5915000000	  49.6235000000	  20.2868000000
S	  14.6506000000	  50.1233000000	  18.4914000000
S	  10.1673000000	  49.4432000000	  19.4210000000
S	   8.5678200000	  48.1998000000	  18.6859000000
S	  12.1648000000	  52.8679000000	  20.1612000000
S	  12.1999000000	  53.7666000000	  22.0902000000
S	  12.9230000000	  52.5735000000	  23.7076000000
S	   8.4786700000	  53.0753000000	  25.4272000000
S	   7.0110100000	  51.8376000000	  26.1624000000
S	   5.5564400000	  51.1277000000	  24.6963000000
S	  10.3842000000	  52.4582000000	  25.9653000000
S	  11.3716000000	  51.4154000000	  24.5157000000
