39

Li	  29.3505000000	  33.6154000000	  32.6030000000
O	  29.6437000000	  35.5423000000	  31.8550000000
O	  31.3250000000	  37.0183000000	  31.6041000000
C	  29.5165000000	  36.5007000000	  32.9038000000
C	  30.8558000000	  37.1177000000	  32.9294000000
C	  30.4845000000	  36.0558000000	  30.9667000000
H	  28.6546000000	  37.2160000000	  32.8911000000
H	  29.2961000000	  35.9101000000	  33.7580000000
H	  30.9595000000	  38.1541000000	  33.1370000000
H	  31.5067000000	  36.5054000000	  33.5060000000
H	  31.1613000000	  35.3915000000	  30.4250000000
H	  29.7721000000	  36.5318000000	  30.3375000000
O	  29.8078000000	  32.9620000000	  30.9773000000
O	  30.5148000000	  31.3602000000	  29.5004000000
C	  28.7399000000	  32.4784000000	  30.1645000000
C	  29.4138000000	  31.9743000000	  28.9174000000
C	  30.9171000000	  32.1885000000	  30.5749000000
H	  28.0621000000	  31.7458000000	  30.5503000000
H	  28.1211000000	  33.2870000000	  29.8590000000
H	  28.6917000000	  31.2908000000	  28.4372000000
H	  29.5445000000	  32.8460000000	  28.3009000000
H	  31.5051000000	  32.8875000000	  30.0514000000
H	  31.3941000000	  31.6184000000	  31.3980000000
S	  30.6483000000	  33.0659000000	  34.1911000000
S	  32.5574000000	  33.9803000000	  34.0516000000
S	  33.2704000000	  34.0370000000	  32.0393000000
S	  36.2923000000	  30.7608000000	  29.3968000000
S	  35.3761000000	  29.7783000000	  27.7935000000
S	  36.2539000000	  27.8733000000	  27.6002000000
S	  35.1575000000	  30.9899000000	  31.1969000000
S	  35.1410000000	  33.0570000000	  31.8352000000
S	  27.2358000000	  33.2564000000	  32.9581000000
S	  25.9352000000	  31.4770000000	  33.3022000000
S	  26.5121000000	  29.6787000000	  32.3208000000
S	  30.4947000000	  27.5831000000	  32.1230000000
S	  31.0283000000	  28.6568000000	  30.4163000000
S	  32.9805000000	  28.4524000000	  29.8008000000
S	  29.5776000000	  28.8728000000	  33.5190000000
S	  27.4809000000	  28.4003000000	  33.6556000000
