53

Li	  30.2557000000	   1.7521100000	  44.9015000000
O	  29.9079000000	  -1.9248073235	  46.7503000000
O	  29.8503000000	   0.1899926765	  45.9204000000
C	  29.7203000000	  -1.1403073235	  47.8996000000
C	  30.3450000000	   0.1537926765	  47.2459000000
C	  29.3842000000	  -1.0982073235	  45.6908000000
H	  28.6830000000	  -0.9803073235	  48.0835000000
H	  30.2116000000	  -1.6144073235	  48.7016000000
H	  30.0107000000	   1.0055500000	  47.8402000000
H	  31.4407000000	   0.0900926765	  47.2740000000
H	  29.6180000000	  -1.5072073235	  44.7451000000
H	  28.2867000000	  -1.1028073235	  45.6927000000
O	  32.3904000000	   0.0859926765	  41.7950000000
O	  31.3070000000	   0.8018926765	  43.7476000000
C	  32.8819000000	  -0.6980073235	  42.8653000000
C	  32.4810000000	   0.0868926765	  44.1476000000
C	  31.6526000000	   1.1015500000	  42.4119000000
H	  32.4578000000	  -1.6851073235	  42.7452000000
H	  33.9755000000	  -0.7492073235	  42.6648000000
H	  32.4455000000	  -0.4427073235	  45.0723000000
H	  33.3460000000	   0.7326926765	  44.3534000000
H	  32.1704000000	   2.0215200000	  42.4436000000
H	  30.7529000000	   1.2616700000	  41.9575000000
N	  26.7659000000	   2.5585500000	  44.6554000000
S	  27.5378000000	   2.1325000000	  43.3364000000
O	  27.6798000000	   3.2244300000	  42.4758000000
O	  28.6907000000	   1.3560500000	  43.5830000000
C	  26.4469000000	   0.9126900000	  42.6298000000
F	  26.3538000000	  -0.1234073235	  43.4960000000
F	  26.6288000000	   0.4202926765	  41.4189000000
F	  25.2004000000	   1.3197200000	  42.5768000000
S	  27.4085000000	   2.6358300000	  46.1033000000
O	  28.8140000000	   2.9748700000	  46.0804000000
O	  26.9110000000	   1.5685400000	  46.9098000000
C	  26.5499000000	   4.1839000000	  46.7090000000
F	  25.2572000000	   4.1219500000	  46.4920000000
F	  26.6654000000	   4.4262900000	  48.0313000000
F	  27.0129000000	   5.2268400000	  46.0546000000
N	  32.1619000000	   4.9009500000	  45.0978000000
S	  31.1254000000	   4.9350000000	  43.9204000000
O	  31.6901000000	   5.4792700000	  42.7162000000
O	  30.2537000000	   3.7937400000	  43.8540000000
C	  30.0270000000	   6.1968500000	  44.5133000000
F	  30.5279000000	   7.4517600000	  44.5015000000
F	  29.6578000000	   6.0556700000	  45.7339000000
F	  28.9203000000	   6.3599000000	  43.7927000000
S	  32.5430000000	   3.8130400000	  46.1318000000
O	  31.8470000000	   2.5748400000	  46.0448000000
O	  32.7366000000	   4.3216000000	  47.4922000000
C	  34.2261000000	   3.3584600000	  45.5476000000
F	  34.7590000000	   2.2521500000	  46.1075000000
F	  34.1037000000	   3.0887700000	  44.2667000000
F	  35.1328000000	   4.2811400000	  45.6545000000
