42

Li	  58.4379000000	  21.5127000000	   7.6355600000
O	  57.4970000000	  24.4371000000	   9.3301000000
O	  58.1057000000	  23.3364000000	   7.4790900000
C	  58.7114000000	  25.0625000000	   8.9986400000
C	  59.2703523235	  24.0801000000	   7.8867200000
C	  57.0132000000	  23.9537000000	   8.1205100000
H	  58.5358000000	  26.0384000000	   8.5442500000
H	  59.3257573235	  25.1893000000	   9.8616900000
H	  59.6553673235	  24.6994000000	   7.1114700000
H	  59.9873673235	  23.3945000000	   8.2945800000
H	  56.1549000000	  23.3034000000	   8.4551300000
H	  56.6635000000	  24.8163000000	   7.5674800000
O	  61.7058173235	  22.1112000000	   4.6010400000
O	  59.8086673235	  21.8838000000	   5.8829700000
C	  60.7753673235	  23.0868000000	   4.1865100000
C	  59.4467573235	  22.5624000000	   4.7029500000
C	  61.1752573235	  21.5424000000	   5.7779600000
H	  61.0062073235	  23.9414000000	   4.7891000000
H	  60.7365373235	  23.3081000000	   3.1588900000
H	  58.7183000000	  23.3168000000	   4.8556400000
H	  58.9655000000	  21.8163000000	   4.0662800000
H	  61.1486273235	  20.4863000000	   5.5588900000
H	  61.7374073235	  21.7772000000	   6.6285100000
O	  59.3035873235	  20.8749000000	   9.0022700000
O	  59.1413000000	  19.3534000000	  10.5694000000
C	  59.1476883235	  21.6385000000	  10.1925000000
C	  59.5233573235	  20.5376000000	  11.1651000000
C	  59.5491273235	  19.5327000000	   9.3085600000
H	  59.8462773235	  22.4163000000	  10.2978000000
H	  58.0836000000	  22.1010000000	  10.2067000000
H	  60.5840973235	  20.4977000000	  11.3061000000
H	  59.0970000000	  20.6125000000	  12.1442000000
H	  59.0708000000	  18.7935000000	   8.7196000000
H	  60.6002173235	  19.2880000000	   9.1951100000
S	  49.2024000000	  19.1589000000	   2.9175700000
S	  50.5313000000	  18.0043000000	   4.1127600000
S	  50.4784000000	  18.8233000000	   6.0904900000
S	  54.6403000000	  19.3482000000	   8.5515000000
S	  56.1916000000	  20.5190000000	   8.0131800000
S	  57.4410000000	  19.8015000000	   6.5359600000
S	  52.8863000000	  20.3455000000	   8.2589400000
S	  52.2051000000	  20.0114000000	   6.2659800000
