46

Li	  18.7591000000	   2.1597600000	   7.4837700000
N	  18.5710000000	   1.8449200000	  11.6380000000
S	  18.1941000000	   2.9852300000	  10.6402000000
O	  18.2864000000	   4.3380600000	  11.0920000000
O	  18.5369000000	   2.7788100000	   9.2401800000
C	  16.3158000000	   2.6987400000	  10.5075000000
F	  15.9220000000	   1.5232000000	  10.1466000000
F	  15.9123000000	   3.4391800000	   9.4530300000
F	  15.5560000000	   3.0946200000	  11.5281000000
S	  18.3307000000	   1.8174500000	  13.1419000000
O	  17.4415000000	   0.7692926765	  13.5357000000
O	  18.0144000000	   3.1009900000	  13.6541000000
C	  19.9944000000	   1.3913300000	  13.9039000000
F	  19.8309000000	   1.0664100000	  15.1821000000
F	  20.5610000000	   0.3645926765	  13.3246000000
F	  20.7939000000	   2.3607200000	  13.9094000000
N	  18.2132000000	   2.8598800000	   4.2571000000
S	  19.7428000000	   2.8687800000	   4.6740700000
O	  20.5496000000	   3.8416700000	   3.9832300000
O	  20.0436000000	   2.5198900000	   6.0599400000
C	  20.2081000000	   1.4847000000	   3.6663700000
F	  20.0118000000	   1.7978200000	   2.3891200000
F	  19.4933000000	   0.4485926765	   4.0044000000
F	  21.4641000000	   1.1882600000	   3.8606200000
S	  16.9878000000	   2.9534000000	   5.1710100000
O	  16.5363000000	   4.2969600000	   5.1432200000
O	  17.1369000000	   2.2863500000	   6.4602300000
C	  15.8297000000	   1.9132500000	   4.2401600000
F	  14.7164000000	   1.8205600000	   4.8194600000
F	  15.7277000000	   2.2840700000	   2.9038800000
F	  16.3384000000	   0.6448926765	   4.2185300000
N	  18.4301000000	  -1.3025073235	   9.6870500000
S	  18.7035000000	  -2.1809073235	  10.9335000000
O	  20.0475000000	  -2.4867073235	  11.3321000000
O	  17.8498000000	  -1.8857073235	  12.0481000000
C	  18.0173000000	  -3.8955073235	  10.5086000000
F	  18.6246000000	  -4.4854073235	   9.5270600000
F	  16.7417000000	  -3.9084073235	  10.1097000000
F	  18.0544000000	  -4.7652073235	  11.5091000000
S	  19.4596000000	  -1.0861073235	   8.4827200000
O	  20.7520000000	  -1.8309073235	   8.5088800000
O	  19.5443000000	   0.3234926765	   8.2024400000
C	  18.5823000000	  -1.8886073235	   7.0717200000
F	  18.3694000000	  -3.2199073235	   7.3003000000
F	  17.3808000000	  -1.3638073235	   6.8260000000
F	  19.1869000000	  -1.7882073235	   5.8650200000
