46

Li	  22.9484000000	   6.3540100000	   3.4169400000
N	  26.0475000000	   7.8385300000	   0.8684160000
S	  25.1604000000	   8.4132200000	   2.1279600000
O	  24.4975000000	   9.6092700000	   1.6878500000
O	  24.3545000000	   7.4735100000	   2.8818600000
C	  26.4376000000	   8.8545800000	   3.2957900000
F	  27.2459000000	   9.8102700000	   2.9542100000
F	  27.2609000000	   7.8285000000	   3.5131100000
F	  25.9715000000	   9.2834700000	   4.4075100000
S	  25.6335000000	   6.6843200000	  -0.0557073235
O	  25.2947000000	   7.1142900000	  -1.4147073235
O	  24.7673000000	   5.7600300000	   0.5908926765
C	  27.1019000000	   5.6643100000	  -0.2425073235
F	  28.1054000000	   6.3598600000	  -0.7391073235
F	  27.5567000000	   5.1430500000	   0.8826310000
F	  26.9592000000	   4.6564200000	  -1.0714073235
N	  23.3980000000	   7.4297900000	   7.3073000000
S	  23.8752000000	   6.0965200000	   6.5662100000
O	  23.6611000000	   4.9325800000	   7.3938400000
O	  23.5545000000	   6.0653900000	   5.0955100000
C	  25.6880000000	   6.2258400000	   6.5226900000
F	  26.1915000000	   6.2804100000	   7.7160900000
F	  26.0256000000	   7.3254800000	   5.8794900000
F	  26.2294000000	   5.2122600000	   5.9359300000
S	  22.5192000000	   8.5526900000	   6.7655900000
O	  21.8407000000	   8.2410700000	   5.5589700000
O	  22.9879000000	   9.9066500000	   6.8198000000
C	  21.2047000000	   8.6140700000	   7.9561600000
F	  20.4050000000	   7.5604300000	   7.8422200000
F	  21.6627000000	   8.6912700000	   9.1864600000
F	  20.4460000000	   9.7468900000	   7.8469700000
N	  21.2466000000	   7.1619400000	  -0.4243073235
S	  20.7615000000	   7.1949400000	   1.0363300000
O	  19.4038000000	   6.7916800000	   1.2596300000
O	  21.6945000000	   6.7266900000	   2.0567300000
C	  20.7357000000	   9.0281700000	   1.2646400000
F	  21.8218000000	   9.6087000000	   0.7942926765
F	  20.6280000000	   9.2813400000	   2.5369600000
F	  19.7419000000	   9.5987000000	   0.6272926765
S	  21.7150000000	   5.9380300000	  -1.2416073235
O	  21.6367000000	   4.6508900000	  -0.6798073235
O	  22.9220000000	   6.1592100000	  -2.0123073235
C	  20.5582000000	   5.8975100000	  -2.6432073235
F	  20.8722000000	   5.0332100000	  -3.5344073235
F	  19.2879000000	   5.5391600000	  -2.2645073235
F	  20.6176000000	   7.0035400000	  -3.3534073235
