35

Li	  59.0004000000	  19.1404000000	  55.2751000000
O	  59.7677773235	  18.0586000000	  56.4697000000
O	  60.3071873235	  15.8592000000	  56.9056000000
C	  60.8918073235	  18.0061000000	  57.3201000000
C	  61.0715673235	  16.5966000000	  57.8380000000
C	  59.3663273235	  16.7334000000	  56.3404000000
H	  61.7712873235	  18.1371000000	  56.6572000000
H	  60.8896173235	  18.7318000000	  58.0486000000
H	  62.0750973235	  16.1956000000	  57.8272000000
H	  60.5999273235	  16.3669000000	  58.8238000000
H	  58.4725000000	  16.5008000000	  56.9796000000
H	  59.3022173235	  16.6456000000	  55.2781000000
N	  62.2396173235	  19.5816000000	  52.8564000000
S	  61.6818773235	  18.0964000000	  52.6595000000
O	  62.5836073235	  17.0675000000	  53.1246000000
O	  60.2913473235	  18.0330000000	  52.8742000000
C	  61.7892973235	  17.8359000000	  50.7997000000
F	  61.2676373235	  18.8517000000	  50.1281000000
F	  61.1384773235	  16.7523000000	  50.3823000000
F	  63.0337973235	  17.6148000000	  50.3576000000
S	  61.6735773235	  20.6505000000	  53.7814000000
O	  60.5923673235	  20.1736000000	  54.5862000000
O	  61.5851973235	  21.9511000000	  53.1696000000
C	  63.0096273235	  20.7976000000	  54.9635000000
F	  63.2986073235	  19.5834000000	  55.5017000000
F	  64.1441773235	  21.3445000000	  54.4449000000
F	  62.6205973235	  21.6321000000	  55.9594000000
S	  51.6987000000	  26.1248000000	  60.1301473235
S	  53.2047000000	  25.2250000000	  58.9426000000
S	  52.6318000000	  24.9607000000	  56.9492000000
S	  54.7891000000	  21.2157000000	  53.6751000000
S	  56.7861000000	  20.7550000000	  54.0161000000
S	  57.2569000000	  18.6749000000	  53.8274000000
S	  53.9435000000	  22.1469000000	  55.4583000000
S	  54.0214000000	  24.1948000000	  55.5544000000
