39

Li	  47.1260000000	  19.8449000000	   3.9528100000
N	  43.6818000000	  20.9443000000	   6.4518700000
S	  45.1387000000	  21.2255000000	   5.9704100000
O	  45.9711000000	  21.8774000000	   6.8871300000
O	  45.7061000000	  20.1265000000	   5.1431900000
C	  44.8040000000	  22.5016000000	   4.7296600000
F	  45.8861000000	  22.9599000000	   4.0612900000
F	  44.2494000000	  23.5431000000	   5.3164600000
F	  43.8815000000	  22.0903000000	   3.8464800000
S	  43.1370000000	  19.6060000000	   6.9542700000
O	  42.9992000000	  19.5959000000	   8.4153900000
O	  43.8672000000	  18.4691000000	   6.4223900000
C	  41.3578000000	  19.4660000000	   6.3604900000
F	  40.9043000000	  18.3003000000	   6.7125200000
F	  40.5055000000	  20.3984000000	   6.7680100000
F	  41.2932000000	  19.5277000000	   5.0540500000
N	  47.4574000000	  20.6963000000	  -0.0894073235
S	  48.8963000000	  20.1817000000	   0.1347926765
O	  49.9108000000	  21.2208000000	   0.3014926765
O	  48.8613000000	  19.0494000000	   1.0621400000
C	  49.2992000000	  19.5470000000	  -1.4937073235
F	  49.4931000000	  20.4557000000	  -2.4483073235
F	  48.3142000000	  18.7585000000	  -2.0106073235
F	  50.4277000000	  18.7990000000	  -1.4600073235
S	  46.3810000000	  21.1696000000	   0.9884790000
O	  46.0870000000	  22.5998000000	   1.0487800000
O	  46.5424000000	  20.4336000000	   2.2269600000
C	  44.7854000000	  20.4908000000	   0.4316926765
F	  43.7532000000	  20.9780000000	   1.1618200000
F	  44.5970000000	  20.8345000000	  -0.8162073235
F	  44.6383000000	  19.1534000000	   0.5582926765
S	  48.5956000000	  17.9130000000	   4.1253200000
S	  49.1992000000	  18.2597000000	   6.1556000000
S	  51.0891000000	  17.3757000000	   6.3251700000
S	  55.8451000000	  18.2712000000	   7.3755900000
S	  57.0915000000	  20.0299000000	   7.1524700000
S	  58.9604000000	  19.7381000000	   5.9475100000
S	  53.8499000000	  18.9333000000	   7.7763200000
S	  52.6802000000	  18.7104000000	   6.0282700000
