31

Li	  16.0808000000	   2.1288400000	  23.2592000000
O	  16.7882000000	   2.7952100000	  24.6957000000
O	  18.2912000000	   3.4480400000	  26.3053000000
C	  16.1725000000	   2.7748400000	  25.8679000000
C	  17.1748000000	   2.9014300000	  26.9623000000
C	  17.9029000000	   3.6445000000	  24.9968000000
H	  15.5800000000	   3.6262900000	  25.9547000000
H	  15.5771000000	   1.8560500000	  25.8536000000
H	  16.7516000000	   3.4744700000	  27.7978000000
H	  17.3309000000	   1.9548100000	  27.4746000000
H	  18.8185000000	   3.2990000000	  24.4669000000
H	  17.7515000000	   4.7414800000	  24.6924000000
O	  16.4454000000	   3.4026500000	  21.8045000000
O	  18.1053000000	   3.5085000000	  20.3587000000
C	  15.9992000000	   4.3076200000	  20.7783000000
C	  17.3493000000	   4.6664700000	  20.1051000000
C	  17.2821000000	   2.6626500000	  21.0855000000
H	  15.3530000000	   3.8193700000	  20.0082000000
H	  15.4577000000	   5.1934000000	  21.1192000000
H	  17.1223000000	   4.9461300000	  19.0476000000
H	  17.7402000000	   5.5636500000	  20.6032000000
H	  17.8674000000	   1.9884400000	  21.7329000000
H	  16.7207000000	   2.0161600000	  20.4281000000
S	  19.7040000000	   1.4929600000	  14.2121000000
S	  17.8907000000	   0.9299390000	  15.2248000000
S	  18.1266000000	   0.3774926765	  17.2723000000
S	  13.8557000000	  -0.3677073235	  20.0381000000
S	  14.2150000000	   0.9753480000	  21.6722000000
S	  15.7662000000	   0.1898926765	  22.8645000000
S	  14.7585000000	   0.1974926765	  18.2393000000
S	  16.5388000000	  -0.8646073235	  17.8485000000
