46

Li	  21.8896000000	  40.8904000000	  56.4944000000
O	  21.5131000000	  39.9905000000	  54.6737000000
O	  22.6463000000	  41.7059000000	  54.3349000000
C	  20.5272000000	  40.7434000000	  53.9783000000
C	  21.4287000000	  41.9398000000	  53.7032000000
C	  22.7769000000	  40.3670000000	  54.3287000000
H	  20.0926000000	  40.1617000000	  53.1273000000
H	  19.7464000000	  41.0129000000	  54.6597000000
H	  21.5813000000	  42.0923000000	  52.6439000000
H	  21.0566000000	  42.8992000000	  54.1239000000
H	  23.5695000000	  39.9528000000	  54.9208000000
H	  22.9558000000	  40.1066000000	  53.3067000000
O	  20.2887000000	  40.1237000000	  57.4471000000
O	  18.3057000000	  39.6673000000	  56.4922000000
C	  20.2198000000	  38.6940000000	  57.3238000000
C	  18.9537000000	  38.3879000000	  56.5110000000
C	  18.9395000000	  40.4333000000	  57.5448000000
H	  21.0630000000	  38.2658000000	  56.7651000000
H	  20.2309000000	  38.3289000000	  58.3758000000
H	  18.9723000000	  37.8935000000	  55.5083000000
H	  18.3098000000	  37.6865000000	  57.0394000000
H	  18.5360000000	  40.1302000000	  58.5168000000
H	  18.8636000000	  41.4907000000	  57.2043000000
N	  19.6680000000	  43.5687000000	  58.8551000000
S	  18.9799000000	  44.2796000000	  60.0369473235
O	  19.6601000000	  44.3012000000	  61.2559473235
O	  18.2985000000	  45.4282000000	  59.5343573235
C	  17.6264000000	  43.1013000000	  60.1841873235
F	  17.0896000000	  42.7923000000	  59.0167000000
F	  16.6916000000	  43.6341000000	  60.9390073235
F	  17.8941000000	  41.9152000000	  60.7846573235
S	  20.8851000000	  43.9703000000	  58.0639000000
O	  21.6524000000	  42.8086000000	  57.6696000000
O	  21.5758000000	  45.0768000000	  58.5988000000
C	  20.0041000000	  44.6225000000	  56.5851000000
F	  20.9265000000	  44.7155000000	  55.5833000000
F	  18.9906000000	  43.8955000000	  56.2334000000
F	  19.5871000000	  45.9033000000	  56.7435000000
S	  23.5915000000	  40.7813000000	  58.0635000000
S	  25.2474000000	  39.5849000000	  57.5442000000
S	  27.1030000000	  40.6198000000	  57.3142000000
S	  31.8008000000	  38.5665000000	  56.6642000000
S	  32.6124000000	  37.0363000000	  55.3445000000
S	  34.7433000000	  37.1735000000	  54.9386000000
S	  30.0635000000	  39.3784000000	  55.9415000000
S	  28.5074000000	  39.1370000000	  57.3077000000
