64

Li	  27.7332000000	  11.0272000000	  15.6256000000
O	  27.8206000000	   9.5815600000	  16.6922000000
O	  27.6395000000	   7.5618800000	  17.7264000000
C	  27.7228000000	   9.8260100000	  18.1271000000
C	  28.0619000000	   8.4756900000	  18.7242000000
C	  27.8769000000	   8.1723400000	  16.5534000000
H	  28.4837000000	  10.5342000000	  18.4122000000
H	  26.7342000000	  10.1151000000	  18.4013000000
H	  29.1195000000	   8.3596900000	  18.9191000000
H	  27.6450000000	   8.3783300000	  19.6918000000
H	  27.2434000000	   7.7899400000	  15.7870000000
H	  28.8584000000	   8.0351600000	  16.2268000000
O	  23.1903000000	  10.4744000000	  15.8045000000
O	  25.4265000000	  10.9841000000	  16.2451000000
C	  23.1972000000	  11.7739000000	  16.4424000000
C	  24.6016000000	  11.7367000000	  17.1174000000
C	  24.5226000000	  10.1171000000	  15.6411000000
H	  23.2225000000	  12.4850000000	  15.6649000000
H	  22.4036000000	  12.0214000000	  17.1186000000
H	  24.9866000000	  12.7531000000	  17.1260000000
H	  24.6298000000	  11.1687000000	  18.0389000000
H	  24.6495000000	   9.1414500000	  16.0859000000
H	  24.7776000000	  10.0697000000	  14.5778000000
O	  27.9521000000	  10.2929000000	  13.8676000000
O	  27.4807000000	   8.7025600000	  12.3417000000
C	  29.1782000000	   9.6803000000	  13.5625000000
C	  28.9008000000	   8.6260200000	  12.4777000000
C	  27.2575000000	  10.0310000000	  12.6642000000
H	  29.8544000000	  10.4184000000	  13.3209000000
H	  29.6642000000	   9.2926200000	  14.5080000000
H	  29.3226000000	   9.0575000000	  11.6500000000
H	  29.3324000000	   7.5978600000	  12.4776000000
H	  26.1737000000	  10.1770000000	  12.9351000000
H	  27.6496000000	  10.6674000000	  11.8519000000
N	  31.6057000000	  12.9192000000	  15.6716000000
S	  32.8407000000	  12.3241000000	  14.9295000000
O	  32.9343000000	  10.8741000000	  14.7683000000
O	  33.2230000000	  13.1194000000	  13.8032000000
C	  34.1417000000	  12.7614000000	  16.1619000000
F	  33.9462000000	  12.1205000000	  17.3267000000
F	  34.2342000000	  14.0157000000	  16.4280000000
F	  35.3220000000	  12.3930000000	  15.8021000000
S	  30.7612000000	  12.1566000000	  16.6924000000
O	  31.3772000000	  11.1254000000	  17.4022000000
O	  29.3405000000	  12.0016000000	  16.3023000000
C	  30.5446000000	  13.5152000000	  17.9887000000
F	  29.9818000000	  13.0699000000	  19.1485000000
F	  31.7198000000	  14.1003000000	  18.2283000000
F	  29.7359000000	  14.4742000000	  17.4813000000
N	  26.2318000000	  14.1313000000	  12.7679000000
S	  24.7705000000	  13.6312000000	  12.8961000000
O	  24.5705000000	  12.1670000000	  13.0736000000
O	  23.8346000000	  14.5055000000	  13.6506000000
C	  24.0662000000	  13.8864000000	  11.1788000000
F	  22.8271000000	  13.3684000000	  11.0900000000
F	  24.8090000000	  13.3694000000	  10.2141000000
F	  23.9941000000	  15.1821000000	  10.9493000000
S	  27.5161000000	  13.6062000000	  13.4668000000
O	  28.5562000000	  13.1754000000	  12.5473000000
O	  27.2497000000	  12.9002000000	  14.6897000000
C	  28.2325000000	  15.1906000000	  14.0682000000
F	  27.7040000000	  15.6401000000	  15.1191000000
F	  29.5318000000	  15.0755000000	  14.2458000000
F	  27.9975000000	  16.1434000000	  13.2053000000
