46

Li	  22.0866000000	  31.1032000000	  55.7909000000
C	  23.4043000000	  29.9165000000	  54.3465000000
C	  23.2557000000	  31.0984000000	  53.6411000000
C	  22.2709000000	  29.2033000000	  54.7090000000
C	  24.7472000000	  29.4620000000	  54.7796000000
C	  21.9839000000	  31.6252000000	  53.3407000000
C	  20.9534000000	  29.7697000000	  54.4948000000
C	  20.8223000000	  30.9646000000	  53.7726000000
H	  24.0472000000	  31.7470000000	  53.5191000000
H	  22.3637000000	  28.2279000000	  55.2070000000
H	  25.4706000000	  30.1741000000	  54.3884000000
H	  24.8164000000	  29.3300000000	  55.8655000000
H	  24.8820000000	  28.3951000000	  54.3697000000
H	  21.8815000000	  32.5708000000	  52.8671000000
H	  20.1235000000	  29.1362000000	  54.8255000000
H	  19.8739000000	  31.3955000000	  53.6020000000
N	  21.1039000000	  29.0426000000	  59.6275173235
S	  22.0154000000	  30.1592000000	  59.1079000000
O	  21.9014000000	  30.4387000000	  57.7008000000
O	  22.0579000000	  31.2948000000	  60.0197373235
C	  23.6530000000	  29.3328000000	  59.2531493235
F	  24.5703000000	  30.1565000000	  58.7244000000
F	  23.6226000000	  28.1974000000	  58.5660000000
F	  24.1091000000	  29.1159000000	  60.4948673235
S	  19.6458000000	  28.6273000000	  59.1466553235
O	  19.1437000000	  29.2728000000	  57.9391000000
O	  18.6800000000	  28.4418000000	  60.1914473235
C	  19.9016000000	  26.9686000000	  58.3913000000
F	  20.6076000000	  26.1250000000	  59.1504013235
F	  18.7511000000	  26.3633000000	  58.1348000000
F	  20.5403000000	  27.0956000000	  57.2573000000
N	  19.8353000000	  33.8467000000	  58.0196000000
S	  21.2584000000	  33.6725000000	  57.4572000000
O	  22.3017000000	  33.6689000000	  58.4510000000
O	  21.3220000000	  32.7935000000	  56.3120000000
C	  21.4850000000	  35.3361000000	  56.7183000000
F	  20.8062000000	  35.3776000000	  55.6183000000
F	  22.7935000000	  35.5847000000	  56.4116000000
F	  21.0364000000	  36.3504000000	  57.4734000000
S	  18.5770000000	  33.0811000000	  57.5846000000
O	  18.7914000000	  32.0410000000	  56.6365000000
O	  17.3983000000	  33.9089000000	  57.4550000000
C	  18.0812000000	  32.2447000000	  59.1256000000
F	  17.6361000000	  33.0156000000	  60.1144573235
F	  17.2205000000	  31.2630000000	  58.8710000000
F	  19.0624000000	  31.6010000000	  59.6628873235
