39

Li	  15.2668000000	  16.7485000000	  55.7266000000
O	  11.7567000000	  18.5152000000	  56.5946000000
O	  13.6136000000	  17.5967000000	  55.7522000000
C	  11.4089000000	  18.0480000000	  55.2753000000
C	  12.7950000000	  17.9174000000	  54.6007000000
C	  13.1244000000	  18.5071000000	  56.6789000000
H	  11.0269000000	  17.0299000000	  55.5072000000
H	  10.7209000000	  18.6294000000	  54.7684000000
H	  12.8711000000	  17.2169000000	  53.7973000000
H	  13.2146000000	  18.8440000000	  54.1755000000
H	  13.4825000000	  19.5379000000	  56.4560000000
H	  13.3033000000	  18.1392000000	  57.6600000000
O	  16.7007000000	  18.4855000000	  56.2752000000
O	  16.2166000000	  20.3902000000	  57.1951000000
C	  17.3388000000	  19.3978000000	  55.4124000000
C	  16.5839000000	  20.6579000000	  55.7838000000
C	  16.6957000000	  19.1315000000	  57.4661000000
H	  18.4186000000	  19.5296000000	  55.6791000000
H	  17.3248000000	  18.8807000000	  54.4109000000
H	  17.2981000000	  21.4480000000	  55.8763000000
H	  15.7469000000	  20.9378000000	  55.1070000000
H	  16.1621000000	  18.7978000000	  58.2680000000
H	  17.7479000000	  19.1195000000	  57.8979000000
S	  14.8695000000	  15.0618000000	  56.9643000000
S	  14.3047000000	  15.6470000000	  58.9122000000
S	  15.7658000000	  15.0211000000	  60.3966773235
S	  19.0250000000	  16.1256000000	  63.6435473235
S	  20.6183000000	  17.4967000000	  63.8876673235
S	  20.5062000000	  17.9154000000	  65.9196373235
S	  17.2092000000	  17.0151000000	  62.8431873235
S	  17.1605000000	  16.5351000000	  60.8364073235
S	  24.2829000000	   8.5186800000	  55.4569000000
S	  23.0000000000	  10.0451000000	  54.7252000000
S	  21.4848000000	  10.4632000000	  56.0437000000
S	  18.4775000000	  14.2440000000	  53.9205000000
S	  17.3300000000	  15.7895000000	  54.7682000000
S	  15.6083000000	  16.0697000000	  53.5415000000
S	  18.8613000000	  12.7323000000	  55.2917000000
S	  20.7677000000	  12.4680000000	  55.9711000000
