42

Li	  43.6200000000	  30.8674000000	  14.9899000000
O	  41.8949000000	  31.1238000000	  14.8947000000
O	  39.9936000000	  31.9545000000	  13.9379000000
C	  40.7129000000	  30.4794000000	  15.4141000000
C	  39.6166000000	  31.5746000000	  15.2645000000
C	  41.3754000000	  32.0908000000	  14.0434000000
H	  40.4081000000	  29.7479000000	  14.7337000000
H	  40.9173000000	  30.0682000000	  16.3769000000
H	  38.6096000000	  31.2206000000	  15.4219000000
H	  39.6548000000	  32.4653000000	  15.8845000000
H	  41.5616000000	  33.0734000000	  14.3171000000
H	  41.7911000000	  31.8785000000	  13.0295000000
N	  46.7960000000	  31.7150000000	  18.0773000000
S	  45.6373000000	  30.6828000000	  17.7590000000
O	  44.5637000000	  31.2142000000	  16.8950000000
O	  46.1587000000	  29.3815000000	  17.3707000000
C	  44.8606000000	  30.4536000000	  19.4904000000
F	  43.6280000000	  29.8933000000	  19.3536000000
F	  44.5934000000	  31.5970000000	  19.9864000000
F	  45.5681000000	  29.6429000000	  20.3617000000
S	  48.3265000000	  31.6157000000	  17.6870000000
O	  49.0243000000	  32.8947000000	  17.6124000000
O	  48.6334000000	  30.7429000000	  16.6316000000
C	  49.0495000000	  30.9666000000	  19.2492000000
F	  48.8750000000	  31.7339000000	  20.2838000000
F	  48.5192000000	  29.7816000000	  19.6240000000
F	  50.3513000000	  30.7960000000	  19.1680000000
N	  46.5689000000	  31.6247000000	  12.8791000000
S	  45.5377000000	  32.8254000000	  13.1134000000
O	  45.5589000000	  33.6722000000	  11.9922000000
O	  44.2420000000	  32.5339000000	  13.6549000000
C	  46.4965000000	  33.7817000000	  14.4474000000
F	  47.5711000000	  34.3104000000	  13.9520000000
F	  46.9272000000	  32.9979000000	  15.3556000000
F	  45.8859000000	  34.7950000000	  15.0785000000
S	  46.3398000000	  30.1194000000	  13.3767000000
O	  45.0055000000	  29.9608000000	  13.9559000000
O	  47.4907000000	  29.5820000000	  14.0722000000
C	  46.0849000000	  29.1211000000	  11.8762000000
F	  45.1591000000	  29.6852000000	  11.0631000000
F	  47.2022000000	  29.0697000000	  11.1907000000
F	  45.7087000000	  27.8736000000	  12.1376000000
