46

Li	  27.4521000000	   6.7404100000	  14.6707000000
N	  26.4124000000	   3.2057700000	  14.9585000000
S	  27.7976000000	   3.5876400000	  15.6716000000
O	  28.9478000000	   2.8366200000	  15.2715000000
O	  27.9629000000	   5.0111000000	  15.8156000000
C	  27.4842000000	   2.9995600000	  17.3100000000
F	  27.5267000000	   1.7033600000	  17.3834000000
F	  26.3307000000	   3.3267000000	  17.8360000000
F	  28.4486000000	   3.4691000000	  18.0753000000
S	  25.5143000000	   4.1344900000	  14.0941000000
O	  24.9449000000	   3.4786000000	  12.9403000000
O	  25.9011000000	   5.5180000000	  13.9703000000
C	  24.0609000000	   4.3467000000	  15.1815000000
F	  23.4426000000	   3.2586200000	  15.5847000000
F	  24.4194000000	   4.9295700000	  16.3536000000
F	  23.0805000000	   5.1015600000	  14.6057000000
N	  26.8523000000	   8.1942200000	  18.5444000000
S	  26.0046000000	   8.2241700000	  19.9004000000
O	  26.8175000000	   8.0633000000	  21.0871000000
O	  25.0202000000	   9.2524300000	  19.9542000000
C	  25.0080000000	   6.6692400000	  19.6958000000
F	  25.7951000000	   5.6050400000	  19.7420000000
F	  24.3577000000	   6.5052300000	  18.5449000000
F	  24.1850000000	   6.5083700000	  20.7745000000
S	  26.6201000000	   8.9286500000	  17.2040000000
O	  25.3799000000	   9.6871800000	  17.0467000000
O	  27.0785000000	   8.1173300000	  16.1237000000
C	  27.8579000000	  10.1944000000	  17.2462000000
F	  27.3713000000	  11.1710000000	  17.9856000000
F	  28.9847000000	   9.8063200000	  17.8337000000
F	  28.1619000000	  10.6884000000	  16.0727000000
N	  29.3623000000	   9.5085600000	  13.3534000000
S	  30.1789000000	   8.7083400000	  14.3965000000
O	  30.7883000000	   9.4978300000	  15.4529000000
O	  29.5803000000	   7.4110400000	  14.6395000000
C	  31.6467000000	   8.2498800000	  13.3790000000
F	  31.3623000000	   7.7464200000	  12.1612000000
F	  32.3660000000	   7.2452200000	  13.8797000000
F	  32.4393000000	   9.2267300000	  13.1092000000
S	  27.8798000000	   9.1737700000	  12.9883000000
O	  26.8315000000	  10.0693000000	  13.5043000000
O	  27.4938000000	   7.7665000000	  12.7888000000
C	  27.8789000000	   9.6987200000	  11.2190000000
F	  28.8291000000	   9.1695900000	  10.5039000000
F	  26.7463000000	   9.3914900000	  10.6592000000
F	  27.9094000000	  11.0271000000	  11.0674000000
