57

Li	  41.5155000000	  49.8740000000	   6.9063800000
O	  41.4566000000	  53.4479000000	   8.4879600000
O	  41.3362000000	  51.6712000000	   7.1918200000
C	  41.7211000000	  54.0112000000	   7.2607000000
C	  41.3115000000	  52.7758000000	   6.3888500000
C	  41.7360000000	  52.1484000000	   8.4481600000
H	  41.1942000000	  54.8453000000	   6.8386400000
H	  42.8145000000	  54.1598000000	   7.0637400000
H	  40.3041000000	  52.9286000000	   5.8783600000
H	  42.1280000000	  52.5142000000	   5.6840700000
H	  42.7550000000	  52.1171000000	   8.5766200000
H	  41.2142000000	  51.5612000000	   9.2574900000
N	  44.0862000000	  49.3158000000	   3.3805500000
S	  43.9805000000	  50.8915000000	   3.2448400000
O	  42.7646000000	  51.3173000000	   2.6286800000
O	  44.4263000000	  51.6911000000	   4.3574300000
C	  45.1588000000	  51.2686000000	   1.8728300000
F	  44.8879000000	  50.6966000000	   0.7232926765
F	  46.3473000000	  50.9184000000	   2.2119100000
F	  45.2203000000	  52.5454000000	   1.6208200000
S	  43.5335000000	  48.4354000000	   4.5140800000
O	  43.1003000000	  47.1079000000	   4.1114100000
O	  42.7823000000	  49.1222000000	   5.5280400000
C	  45.1008000000	  48.0925000000	   5.4269900000
F	  44.9096000000	  47.5781000000	   6.6324900000
F	  45.8228000000	  47.2584000000	   4.7609500000
F	  45.9315000000	  49.1362000000	   5.5398000000
N	  38.9068000000	  48.5513000000	   3.7426200000
S	  39.6959000000	  47.8178000000	   2.5955700000
O	  40.4259000000	  48.7086000000	   1.6973700000
O	  40.3337000000	  46.5957000000	   2.9527900000
C	  38.3079000000	  47.2601000000	   1.5634200000
F	  37.7680000000	  46.1533000000	   2.0817300000
F	  38.7009000000	  46.8819000000	   0.3462926765
F	  37.3599000000	  48.1525000000	   1.3335500000
S	  39.2927000000	  49.9754000000	   4.4119200000
O	  39.6981000000	  51.0028000000	   3.4973800000
O	  39.9052000000	  49.9218000000	   5.7046100000
C	  37.6907000000	  50.6498000000	   4.9255900000
F	  37.7651000000	  51.6433000000	   5.8190300000
F	  37.0821000000	  51.2296000000	   3.9492100000
F	  36.8490000000	  49.6976000000	   5.3530800000
N	  41.4767000000	  48.4125000000	  11.0784000000
S	  39.9844000000	  48.6899000000	  10.6409000000
O	  39.6761000000	  49.4666000000	   9.4379700000
O	  39.2072000000	  47.5442000000	  10.8178000000
C	  39.4505000000	  49.8391000000	  11.9732000000
F	  39.5490000000	  49.1929000000	  13.0691000000
F	  38.1469000000	  50.1373000000	  11.8407000000
F	  40.2033000000	  50.9255000000	  12.1631000000
S	  42.7541000000	  48.6532000000	  10.1142000000
O	  42.5138000000	  49.1733000000	   8.7798200000
O	  43.7643000000	  47.6190000000	  10.2240000000
C	  43.6575000000	  50.0251000000	  10.9885000000
F	  43.7795000000	  49.6516000000	  12.2637000000
F	  44.8308000000	  50.4142000000	  10.5679000000
F	  42.9405000000	  51.0494000000	  10.9713000000
