38

Li	  44.4693000000	  33.3814000000	   0.9169140000
O	  45.2711000000	  34.1858000000	   2.3533300000
O	  46.0359000000	  35.1904000000	   4.2889500000
C	  46.2802000000	  35.1501000000	   2.0704500000
C	  47.0721000000	  35.4178000000	   3.3079900000
C	  45.2297000000	  34.1965000000	   3.7868200000
H	  46.7493000000	  34.7645000000	   1.2317800000
H	  45.8153000000	  36.1397000000	   1.6684100000
H	  47.7813000000	  34.5517000000	   3.4348000000
H	  47.5815000000	  36.4324000000	   3.4436800000
H	  44.1838000000	  34.2607000000	   4.0237800000
H	  45.6459000000	  33.2457000000	   4.0844200000
O	  42.8345000000	  32.3870000000	   0.5156926765
O	  43.2075000000	  32.6169000000	   2.6520800000
C	  43.3590000000	  31.1925000000	   0.8684700000
C	  43.7210000000	  31.4541000000	   2.3267200000
C	  42.2651000000	  32.9371000000	   1.6924200000
H	  42.6346000000	  30.3255000000	   0.9005920000
H	  44.2079000000	  30.8923000000	   0.2429926765
H	  43.2684000000	  30.7127000000	   2.9656400000
H	  44.8340000000	  31.4575000000	   2.5536500000
H	  42.2473000000	  34.0069000000	   1.8202400000
H	  41.2873000000	  32.5262000000	   1.9142600000
N	  45.9620000000	  34.4716000000	  -2.3330073235
S	  46.3762000000	  33.0096000000	  -1.9085073235
O	  45.8526000000	  32.5144000000	  -0.6297073235
O	  46.4133000000	  32.0990000000	  -3.0541073235
C	  48.1581000000	  33.1049000000	  -1.4775073235
F	  48.6266000000	  32.0925000000	  -0.7521073235
F	  48.5510000000	  34.1150000000	  -0.7176073235
F	  48.8703000000	  33.1113000000	  -2.6400073235
S	  44.7635000000	  35.3349000000	  -1.7466073235
O	  44.8695000000	  36.7341000000	  -2.0152073235
O	  44.3515000000	  34.9178000000	  -0.4159073235
C	  43.3076000000	  34.7436000000	  -2.7917073235
F	  42.3821000000	  35.6809000000	  -2.5228073235
F	  43.4684000000	  34.9025000000	  -4.1195073235
F	  42.7661000000	  33.5790000000	  -2.4649073235
