31

Li	  51.2133000000	  44.2644000000	  13.2775000000
O	  52.9101000000	  43.6216000000	  12.0341000000
O	  54.7304000000	  43.8070000000	  10.6076000000
C	  54.0285000000	  43.0573000000	  12.6489000000
C	  55.2207000000	  43.6667000000	  11.9152000000
C	  53.3192000000	  43.7080000000	  10.6730000000
H	  54.1111000000	  43.2536000000	  13.6657000000
H	  53.9533000000	  41.9847000000	  12.4713000000
H	  55.4511000000	  44.6829000000	  12.2776000000
H	  56.0419000000	  42.9343000000	  11.9582000000
H	  53.1428000000	  42.7950000000	  10.1582000000
H	  52.8990000000	  44.4850000000	  10.0323000000
O	  52.2156000000	  47.8994000000	  14.0461000000
O	  51.7434000000	  46.0152000000	  12.9712000000
C	  50.8588000000	  47.8768000000	  14.1726000000
C	  50.5728000000	  46.6962000000	  13.2862000000
C	  52.7027000000	  46.6742000000	  13.7420000000
H	  50.6207000000	  47.6672000000	  15.1878000000
H	  50.5028000000	  48.8873000000	  13.9492000000
H	  49.9663000000	  45.9402000000	  13.7590000000
H	  49.9373000000	  46.9521000000	  12.4391000000
H	  53.5663000000	  46.9209000000	  13.1743000000
H	  52.9074000000	  46.0193000000	  14.6052000000
S	  47.6403000000	  45.4181000000	  20.8291000000
S	  47.9376000000	  44.2399000000	  19.1305000000
S	  49.6070000000	  44.9215000000	  18.0590000000
S	  51.0155000000	  42.1544000000	  14.6000000000
S	  49.3002000000	  42.5773000000	  13.3392000000
S	  49.9615000000	  43.7001000000	  11.6377000000
S	  51.6839000000	  43.7921000000	  15.6543000000
S	  51.1371000000	  43.7085000000	  17.6195000000
