42

Li	  46.4962000000	  45.4857000000	  54.5257000000
O	  47.7314000000	  48.4491000000	  52.3705000000
O	  47.2950000000	  47.1195000000	  54.1109000000
C	  47.0130000000	  49.1705000000	  53.3331000000
C	  47.3977000000	  48.3960000000	  54.5861000000
C	  47.9518000000	  47.2217000000	  52.9179000000
H	  47.4520000000	  50.1068000000	  53.2813000000
H	  45.9514000000	  49.2170000000	  53.1587000000
H	  48.4042000000	  48.7076000000	  54.8747000000
H	  46.7098000000	  48.5514000000	  55.4075000000
H	  47.6205000000	  46.4530000000	  52.2542000000
H	  49.0163000000	  47.1441000000	  53.0817000000
C	  48.6105000000	  44.4151000000	  54.7836000000
C	  48.0161000000	  43.8864000000	  53.6545000000
C	  47.9167000000	  44.4164000000	  55.9985000000
C	  49.9743000000	  45.0643000000	  54.7646000000
C	  46.7564000000	  43.2722000000	  53.7751000000
C	  46.6454000000	  43.7646000000	  56.0688000000
C	  46.0119000000	  43.2574000000	  54.9678000000
H	  48.5080000000	  43.9157000000	  52.6958000000
H	  48.3411000000	  44.8879000000	  56.8819000000
H	  50.7160000000	  44.2993000000	  54.8280000000
H	  50.1654000000	  45.5386000000	  53.8207000000
H	  50.1856000000	  45.7882000000	  55.4966000000
H	  46.3391000000	  42.7463000000	  52.9359000000
H	  46.1173000000	  43.7229000000	  57.0247000000
H	  45.0344000000	  42.7727000000	  54.8584000000
N	  42.7329000000	  47.2807000000	  55.5093000000
S	  42.6743000000	  48.5852000000	  54.6325000000
O	  43.8121000000	  49.3621000000	  54.3579000000
O	  41.8591000000	  48.3525000000	  53.4800000000
C	  41.6313000000	  49.5352000000	  55.7110000000
F	  42.3221000000	  49.9404000000	  56.6917000000
F	  40.6078000000	  48.9055000000	  56.2146000000
F	  41.1347000000	  50.6016000000	  55.1256000000
S	  43.9375000000	  46.9051000000	  56.4341000000
O	  44.2219000000	  47.9382000000	  57.4471000000
O	  45.0302000000	  46.2278000000	  55.7616000000
C	  43.2001000000	  45.5235000000	  57.4583000000
F	  42.0799000000	  45.8575000000	  58.1022000000
F	  42.9749000000	  44.5624000000	  56.5907000000
F	  43.9303000000	  45.0221000000	  58.4299000000
