45

Li	  14.4111000000	  37.3091000000	   3.7489600000
O	  14.7731000000	  41.0330000000	   6.2787900000
O	  14.4680000000	  39.2425000000	   4.9037000000
C	  13.4445000000	  40.9874000000	   5.9786800000
C	  13.4291000000	  40.1876000000	   4.7126600000
C	  15.2746000000	  39.7807000000	   5.9043600000
H	  13.0774000000	  40.2022000000	   6.7233700000
H	  12.9471000000	  41.9911000000	   6.0476400000
H	  12.5874000000	  39.5896000000	   4.5819900000
H	  13.4697000000	  40.7333000000	   3.8095500000
H	  16.2710000000	  40.0623000000	   5.5194000000
H	  15.4143000000	  39.1228000000	   6.7848600000
O	  12.5981000000	  37.4111000000	   2.7445300000
O	  10.7374000000	  38.3099000000	   2.0838000000
C	  11.6518000000	  36.3674000000	   3.0710800000
C	  10.3615000000	  37.0038000000	   2.6228200000
C	  11.9779000000	  38.1385000000	   1.7537000000
H	  11.8778000000	  35.6020000000	   2.4170800000
H	  11.6759000000	  36.0241000000	   4.0430100000
H	  10.0591000000	  36.4985000000	   1.7309000000
H	   9.5549200000	  36.9627000000	   3.2905700000
H	  12.4705000000	  39.0980000000	   1.6133200000
H	  11.9930000000	  37.6190000000	   0.7781926765
O	  15.9666000000	  36.1948000000	   3.0440100000
O	  15.1048000000	  37.5888000000	   1.5239100000
C	  16.6983000000	  37.4217000000	   3.2095200000
C	  16.2537000000	  38.2622000000	   1.9887700000
C	  15.4367000000	  36.2691000000	   1.8112900000
H	  16.4699000000	  37.8454000000	   4.2091600000
H	  17.8319000000	  37.3447000000	   3.1647000000
H	  15.9527000000	  39.3057000000	   2.1002100000
H	  16.9975000000	  38.1134000000	   1.2261100000
H	  16.1419000000	  35.8101000000	   1.1199600000
H	  14.6271000000	  35.5361000000	   1.8961400000
O	  14.2471000000	  34.3354000000	   6.8968500000
O	  14.3220000000	  36.0831000000	   5.3505400000
C	  13.4646000000	  35.3350000000	   7.4266900000
C	  13.6798000000	  36.6059000000	   6.5353900000
C	  14.2387000000	  34.6867000000	   5.5045200000
H	  12.4617000000	  34.9742000000	   7.3175800000
H	  13.7056000000	  35.5656000000	   8.4615800000
H	  12.7437000000	  37.1101000000	   6.4690300000
H	  14.3546000000	  37.2671000000	   7.0936700000
H	  15.1436000000	  34.2151000000	   5.0382100000
H	  13.3587000000	  34.1235000000	   5.1691400000
