28

Li	  20.6429000000	  19.2387000000	  56.1887000000
O	  21.5418000000	  19.4561000000	  57.7609000000
O	  22.7164000000	  18.2387000000	  59.1576493235
C	  20.9931000000	  19.6848000000	  59.0279000000
C	  21.9578000000	  19.0148000000	  60.0348673235
C	  22.7769000000	  19.0487000000	  57.9806000000
H	  20.8059000000	  20.7724000000	  59.1565443235
H	  20.0784000000	  19.0932000000	  59.0507000000
H	  22.5317000000	  19.8769000000	  60.5488673235
H	  21.4823000000	  18.3445000000	  60.6867173235
H	  23.1054000000	  18.2746000000	  57.2649000000
H	  23.6495000000	  19.7051000000	  58.1742000000
S	  13.8807000000	  10.4264000000	  54.9577000000
S	  14.8398000000	  11.7699000000	  53.6056000000
S	  16.3794000000	  12.9473000000	  54.4826000000
S	  18.2138000000	  17.2622000000	  54.0236000000
S	  17.8150000000	  19.3240000000	  54.4036000000
S	  18.5818000000	  19.7034000000	  56.3803000000
S	  16.4600000000	  16.1667000000	  53.2274000000
S	  15.6851000000	  14.9060000000	  54.7109000000
S	  27.5956000000	  21.4192000000	  58.9395000000
S	  26.0818000000	  21.4064000000	  60.3581873235
S	  24.7214000000	  23.0993000000	  60.2657373235
S	  23.7257000000	  21.7668000000	  55.6301000000
S	  21.9286000000	  20.8347000000	  54.9872000000
S	  22.1248000000	  18.7510000000	  54.5738000000
S	  23.4430000000	  23.4761000000	  56.9181000000
S	  23.0625000000	  22.7755000000	  58.8567000000
