15

Li	  30.4863000000	  47.2686000000	  36.1774000000
N	  30.6027000000	  48.7757000000	  35.0349000000
C	  30.7970000000	  49.5859000000	  32.5721000000
C	  30.6807000000	  49.1393000000	  33.9737000000
H	  31.4083000000	  50.4760000000	  32.5980000000
H	  31.2224000000	  48.7443000000	  31.9844000000
H	  29.7623000000	  49.8519000000	  32.2301000000
S	  32.5902000000	  46.2450000000	  35.7687000000
S	  33.1162000000	  45.9379000000	  37.8097000000
S	  32.7974000000	  47.5861000000	  39.0662000000
S	  27.8811000000	  47.8609000000	  39.0151000000
S	  27.8669000000	  47.6632000000	  36.9258000000
S	  29.0146000000	  45.8513000000	  36.5236000000
S	  29.4812000000	  48.9378000000	  39.7943000000
S	  31.0611000000	  47.5599000000	  40.2354000000
