29

Li	  46.5680000000	  36.2396000000	  37.5557000000
N	  44.9919000000	  35.4169000000	  38.4255000000
C	  45.1870000000	  33.9875000000	  40.6318000000
C	  45.1001000000	  34.7942000000	  39.4172000000
H	  44.1847000000	  33.7215000000	  40.8479000000
H	  45.8929000000	  33.1853000000	  40.3377000000
H	  45.6741000000	  34.6283000000	  41.3463000000
N	  46.6798000000	  35.0405000000	  35.9239000000
C	  47.1316000000	  34.1875000000	  33.4747000000
C	  46.8654000000	  34.6483000000	  34.8494000000
H	  47.6410000000	  33.2452000000	  33.4656000000
H	  46.1832000000	  33.9983000000	  32.9468000000
H	  47.7375000000	  34.9328000000	  32.9962000000
S	  45.5243000000	  33.2113000000	  30.1832000000
S	  44.8237000000	  35.1888000000	  29.5936000000
S	  45.6119000000	  36.8199000000	  30.6724000000
S	  45.5322000000	  38.8265000000	  34.9392000000
S	  47.1531000000	  38.2599000000	  36.2192000000
S	  46.5143000000	  38.3451000000	  38.1910000000
S	  44.5021000000	  37.1507000000	  34.0835000000
S	  44.1644000000	  37.5410000000	  32.0118000000
S	  53.1316000000	  36.1598000000	  29.0164000000
S	  54.1042000000	  35.3083000000	  30.7418000000
S	  52.8775000000	  33.9156000000	  31.7291000000
S	  50.5851000000	  35.6735000000	  36.0651000000
S	  49.9332000000	  34.7307000000	  37.9065000000
S	  48.4259000000	  35.5488000000	  38.9687000000
S	  50.8073000000	  34.3107000000	  34.5100000000
S	  52.8188000000	  34.2637000000	  33.7671000000
