21

Li	  10.7229000000	  54.1713000000	  36.6670000000
N	  11.8024000000	  55.2514000000	  38.0272000000
C	  14.2095000000	  55.5433000000	  39.0156000000
C	  12.8605000000	  55.3739000000	  38.4742000000
H	  14.2801000000	  54.9930000000	  39.9737000000
H	  14.9417000000	  55.0749000000	  38.3662000000
H	  14.4299000000	  56.5988000000	  39.2526000000
N	  10.3918000000	  55.5646000000	  35.3003000000
C	   8.9086300000	  56.1293000000	  33.2161000000
C	   9.7409300000	  55.7798000000	  34.3732000000
H	   9.4978300000	  56.6759000000	  32.5042000000
H	   8.3473000000	  55.2854000000	  32.8037000000
H	   8.1509300000	  56.7951000000	  33.6089000000
S	   8.7936400000	  53.6978000000	  37.9983000000
S	   7.4891200000	  53.2709000000	  39.6323000000
S	   8.6550000000	  52.3697000000	  41.1618000000
S	  10.8763000000	  50.0708000000	  38.1720000000
S	  12.3455000000	  51.5951000000	  37.8380000000
S	  11.9779000000	  52.5833000000	  35.9301000000
S	  10.7595000000	  49.6983000000	  40.2986000000
S	   8.8461000000	  50.3475000000	  40.9779000000
