32

Li	  21.6548000000	   4.2358200000	  57.9234000000
O	  20.0359000000	   4.9888100000	  59.1451000000
O	  18.1067000000	   6.0946500000	  59.6875245214
C	  19.7359000000	   4.6523200000	  60.5290745214
C	  18.2882000000	   5.1588100000	  60.7252345214
C	  18.9360000000	   5.6779300000	  58.6718000000
H	  19.8226000000	   3.6227300000	  60.6707945214
H	  20.4876000000	   5.2331500000	  61.1168945214
H	  17.7864000000	   4.2204800000	  60.5503245214
H	  18.2003000000	   5.6440200000	  61.7238445214
H	  19.3746000000	   6.5342000000	  58.0660000000
H	  18.3909000000	   4.9586100000	  58.0947000000
N	  22.0102000000	   2.3961600000	  58.6314000000
C	  21.2643000000	  -0.0961718524	  58.8012000000
C	  21.7119000000	   1.2646400000	  58.7468000000
H	  20.7142000000	  -0.3615718524	  57.9297000000
H	  22.1504000000	  -0.7482718524	  58.8128000000
H	  20.7558000000	  -0.3689718524	  59.7112445214
N	  20.5209000000	   3.9293600000	  56.1830000000
C	  20.1911000000	   2.8380500000	  53.8723000000
C	  20.3581000000	   3.4519200000	  55.1566000000
H	  19.1163000000	   2.7620900000	  53.7807000000
H	  20.5672000000	   3.5715800000	  53.1457000000
H	  20.7562000000	   1.8982800000	  53.8326000000
S	  22.7036000000	   8.8727800000	  67.1802045214
S	  24.2224000000	   7.5349700000	  66.6468245214
S	  23.4645000000	   5.9559900000	  65.6374645214
S	  24.1179000000	   5.5665200000	  60.1943445214
S	  22.9213000000	   6.2592000000	  58.5813000000
S	  23.4793000000	   5.3453000000	  56.7461000000
S	  23.1956000000	   6.1582000000	  62.1004445214
S	  24.3725000000	   5.5198500000	  63.7674545214
