34

Li	  20.2262000000	  10.5687000000	  40.4600000000
N	  19.7515000000	   8.7951500000	  41.3658000000
C	  18.8081000000	   6.3142100000	  41.5428000000
C	  19.3027000000	   7.7114400000	  41.4514000000
H	  19.6958000000	   5.8595200000	  41.9529000000
H	  17.9697000000	   6.1978500000	  42.2447000000
H	  18.5555000000	   5.8968100000	  40.5377000000
N	  18.7650000000	  11.0696000000	  39.2740000000
C	  17.9943000000	  10.6510000000	  36.7981000000
C	  18.4373000000	  10.8778000000	  38.1587000000
H	  17.1774000000	   9.8694000000	  36.8439000000
H	  17.7954000000	  11.6185000000	  36.3053000000
H	  18.8531000000	  10.2160000000	  36.2837000000
N	  20.9384000000	  12.1483000000	  41.6923000000
C	  22.0876000000	  14.4495000000	  41.8924000000
C	  21.4264000000	  13.1607000000	  41.8354000000
H	  22.5493000000	  14.5677000000	  42.8679000000
H	  22.7493000000	  14.4110000000	  41.0718000000
H	  21.3559000000	  15.1952000000	  41.7241000000
N	  23.0840000000	   8.9144100000	  37.3051000000
S	  22.8251000000	   8.9765600000	  38.8824000000
O	  24.0507000000	   9.1232800000	  39.6616000000
O	  21.6628000000	   9.8010300000	  39.2176000000
C	  22.4357000000	   7.2192400000	  39.2003000000
F	  21.1948000000	   6.9115600000	  38.8730000000
F	  22.6820000000	   6.8965500000	  40.4780000000
F	  23.1961000000	   6.4287000000	  38.4332000000
S	  22.1683000000	   9.5442600000	  36.1471000000
O	  21.3509000000	  10.6412000000	  36.5674000000
O	  21.5636000000	   8.5417300000	  35.2778000000
C	  23.4781000000	  10.3737000000	  35.2560000000
F	  23.0756000000	  10.8351000000	  34.0511000000
F	  23.9935000000	  11.3968000000	  35.9537000000
F	  24.5159000000	   9.6514000000	  35.0524000000
