26

Li	  19.9494000000	  34.2148000000	  44.6170000000
O	  21.1209000000	  34.2231000000	  46.1040000000
O	  22.7523000000	  35.1055000000	  47.3009000000
C	  21.4781000000	  33.1410000000	  46.9901000000
C	  22.8816000000	  33.6930000000	  47.3577000000
C	  21.4868000000	  35.3037000000	  46.8592000000
H	  20.8681000000	  33.0823000000	  47.8915000000
H	  21.4284000000	  32.0902000000	  46.5567000000
H	  23.2234000000	  33.4197000000	  48.3167000000
H	  23.5976000000	  33.2986000000	  46.6201000000
H	  21.3566000000	  36.1688000000	  46.1997000000
H	  20.8919000000	  35.3933000000	  47.7993000000
N	  18.9012000000	  35.5618000000	  43.9337000000
C	  17.8722000000	  35.6451000000	  41.5633000000
C	  18.4340000000	  35.6332000000	  42.9075000000
H	  18.7242000000	  36.0395000000	  40.9469000000
H	  17.6386000000	  34.6240000000	  41.2350000000
H	  16.9508000000	  36.2368000000	  41.5875000000
S	  19.9541000000	  39.2529000000	  42.1886000000
S	  21.3399000000	  37.6684000000	  42.0383000000
S	  22.4915000000	  37.5284000000	  40.2911000000
S	  20.6522000000	  33.0840000000	  40.7554000000
S	  21.0987000000	  33.1634000000	  42.8358000000
S	  19.4956000000	  32.3681000000	  44.0318000000
S	  22.2130000000	  34.0838000000	  39.6957000000
S	  21.7094000000	  36.0276000000	  38.9844000000
