36

Li	   4.8912000000	  22.4542000000	  38.6648000000
O	   4.5177800000	  24.3262000000	  39.2543000000
O	   2.6867200000	  25.6886000000	  39.4166000000
C	   3.9529500000	  24.2273000000	  40.5650000000
C	   2.5796100000	  24.9887000000	  40.6115000000
C	   3.9147900000	  25.4994000000	  38.7819000000
H	   3.8151500000	  23.2320000000	  40.9801000000
H	   4.5260900000	  24.7128000000	  41.3655000000
H	   1.6982500000	  24.3798000000	  40.4835000000
H	   2.5312000000	  25.6615000000	  41.4983000000
H	   4.6083600000	  26.1898000000	  38.9175000000
H	   3.8076000000	  25.4214000000	  37.7085000000
N	   2.4824600000	  19.5318000000	  36.0164000000
C	   5.0038600000	  20.0524000000	  36.4621000000
C	   3.5785300000	  19.7698000000	  36.1608000000
H	   5.1456600000	  20.5744000000	  37.3655000000
H	   5.5225400000	  19.0921000000	  36.6236000000
H	   5.5175700000	  20.6033000000	  35.7228000000
N	   3.0467500000	  22.1610000000	  38.2572000000
C	   0.8144700000	  23.2955000000	  37.3442000000
C	   2.0451800000	  22.6945000000	  37.9167000000
H	   1.1965300000	  24.0952000000	  36.6730000000
H	   0.2555369574	  22.6371000000	  36.6491000000
H	   0.2435369574	  23.6207000000	  38.2059000000
N	   5.5854500000	  21.0281000000	  39.7942000000
C	   6.4436200000	  19.0653000000	  41.2954000000
C	   5.9062900000	  20.1317000000	  40.4715000000
H	   7.3598100000	  18.5534000000	  41.0527000000
H	   6.5936700000	  19.4634000000	  42.2938000000
H	   5.7005100000	  18.2127000000	  41.3653000000
N	   5.8532400000	  23.0742000000	  37.0371000000
C	   8.1542900000	  23.6863000000	  36.0612000000
C	   6.8416400000	  23.3505000000	  36.5732000000
H	   8.5038300000	  24.6355000000	  36.4626000000
H	   8.8536200000	  22.8268000000	  35.9996000000
H	   8.0723500000	  23.7910000000	  34.9454000000
