39

Li	  21.8584000000	  34.0295000000	  25.3820000000
O	  21.9457000000	  35.9290000000	  26.2286000000
O	  22.7434000000	  37.1500000000	  27.8207000000
C	  21.8665000000	  37.2406000000	  25.7372000000
C	  22.1991000000	  38.0689000000	  26.9584000000
C	  22.1234000000	  35.9305000000	  27.5713000000
H	  22.4498000000	  37.4015000000	  24.9102000000
H	  20.8682000000	  37.4852000000	  25.4133000000
H	  22.6076000000	  39.0073000000	  26.6710000000
H	  21.2564000000	  38.2730000000	  27.4586000000
H	  21.2573000000	  35.9667000000	  28.2814000000
H	  22.7359000000	  35.0369000000	  27.9281000000
O	  20.7132000000	  34.3525000000	  23.8871000000
O	  18.8746000000	  35.5636000000	  23.8005000000
C	  20.8584000000	  35.1895000000	  22.7364000000
C	  19.7638000000	  36.0762000000	  22.8358000000
C	  19.3525000000	  34.3176000000	  24.0503000000
H	  21.8335000000	  35.5998000000	  22.8967000000
H	  20.7813000000	  34.6308000000	  21.7622000000
H	  19.9965000000	  37.1063000000	  23.0986000000
H	  19.2893000000	  36.0886000000	  21.7995000000
H	  18.8694000000	  33.6134000000	  23.3526000000
H	  19.1249000000	  33.8752000000	  25.0940000000
S	  21.1676000000	  32.1176000000	  26.3877000000
S	  19.4067000000	  30.9804000000	  25.9820000000
S	  17.5763000000	  31.9377000000	  26.4558000000
S	  16.6737000000	  28.4757000000	  29.6800000000
S	  15.3355000000	  27.0271000000	  30.3426000000
S	  15.7629000000	  25.0430000000	  29.7730000000
S	  15.7800000000	  30.2610000000	  28.9074000000
S	  17.2180000000	  31.7362000000	  28.4486000000
S	  24.0286000000	  33.7960000000	  25.1245000000
S	  24.5456000000	  31.7905000000	  25.0348000000
S	  25.8638000000	  31.0556000000	  23.5400000000
S	  30.5970000000	  31.1331000000	  23.6351000000
S	  32.1022000000	  32.4844000000	  24.5279000000
S	  33.9496000000	  31.4590000000	  24.6008000000
S	  29.1216000000	  30.7446000000	  24.9965000000
S	  27.4228000000	  29.7829000000	  24.3369000000
