32

Li	  20.5258000000	  39.2108000000	  34.9416000000
O	  20.0249000000	  37.3355000000	  34.0850000000
O	  20.1282000000	  35.1123000000	  33.6789000000
C	  19.8354000000	  37.2076000000	  32.6844000000
C	  19.7259000000	  35.7302000000	  32.4399000000
C	  19.7086000000	  36.1088000000	  34.5575000000
H	  18.8701000000	  37.6548000000	  32.4322000000
H	  20.6563000000	  37.6680000000	  32.0820000000
H	  18.7508000000	  35.3941000000	  32.2649000000
H	  20.3864000000	  35.5997000000	  31.5837000000
H	  20.1862000000	  36.0056000000	  35.5251000000
H	  18.6219000000	  36.1232000000	  34.7100000000
N	  19.9327000000	  40.4824000000	  33.3522000000
C	  19.2130000000	  40.7696000000	  30.8813000000
C	  19.6005000000	  40.5478000000	  32.2300000000
H	  18.2027000000	  41.0858000000	  30.9152000000
H	  19.7491000000	  41.6499000000	  30.4401000000
H	  19.2074000000	  39.9310000000	  30.1894000000
N	  22.2433000000	  38.3804000000	  35.6689000000
C	  24.8801000000	  38.4992000000	  35.9570000000
C	  23.3882000000	  38.4493000000	  35.7994000000
H	  25.1569000000	  37.5797000000	  36.5189000000
H	  25.3169000000	  38.4229000000	  34.9748000000
H	  25.2322000000	  39.4545000000	  36.3598000000
S	  19.2536000000	  39.1682000000	  36.5736000000
S	  18.5888000000	  37.9420000000	  38.1821000000
S	  17.1375000000	  36.6059000000	  37.4024000000
S	  13.2283000000	  34.5502000000	  38.6079000000
S	  12.5387000000	  32.6213000000	  37.9627000000
S	  12.1304000000	  31.2368000000	  39.5871000000
S	  13.6972000000	  35.9384000000	  37.0972000000
S	  15.1604000000	  37.3403000000	  37.7029000000
