19

Li	  11.4746000000	   2.4304800000	  20.4994000000
N	  11.4044000000	   0.6567281476	  21.2023000000
C	  12.4974000000	  -1.4904718524	  22.0207000000
C	  11.8933000000	  -0.3017718524	  21.5273000000
H	  12.5233000000	  -2.2371718524	  21.2392000000
H	  13.4531000000	  -1.0889718524	  22.3712000000
H	  11.9787000000	  -1.8661718524	  22.9248000000
N	  13.3322000000	   2.2771000000	  19.8098000000
C	  15.8548000000	   1.3527100000	  19.9448000000
C	  14.4423000000	   1.8883500000	  19.8784000000
H	  15.8882000000	   0.4193281476	  19.3574000000
H	  16.6210000000	   2.1034000000	  19.6242000000
H	  16.0187000000	   1.0657600000	  21.0074000000
N	  11.1563000000	   3.8070000000	  21.8382000000
C	  11.0360000000	   4.7031100000	  24.3060000000
C	  11.1026000000	   4.2262600000	  22.9526000000
H	  10.4980000000	   4.0570900000	  25.0216000000
H	  12.0678000000	   4.8432400000	  24.6566000000
H	  10.6912000000	   5.7317600000	  24.2262000000
