34

Li	  45.9974000000	  21.2268000000	   0.8862460000
O	  48.0928000000	  22.8755000000	   3.5751400000
O	  46.5063000000	  21.3947000000	   2.8191500000
C	  48.6685000000	  21.6588000000	   3.5325000000
C	  47.6123000000	  20.6130000000	   3.2250600000
C	  46.7400000000	  22.6159000000	   3.5191700000
H	  49.4146000000	  21.6446000000	   2.8068400000
H	  49.1950000000	  21.5125000000	   4.4750300000
H	  47.8651000000	  20.0182000000	   2.3263000000
H	  47.4579000000	  19.9422000000	   4.1351600000
H	  46.3718000000	  22.5816000000	   4.5661200000
H	  46.3338000000	  23.4924000000	   3.0183800000
N	  47.1983000000	  20.0488000000	  -0.1657045214
C	  48.5815000000	  18.6671000000	  -1.8660045214
C	  47.8382000000	  19.4337000000	  -0.9152045214
H	  47.8436000000	  18.4257000000	  -2.6691045214
H	  49.1941000000	  19.4189000000	  -2.3424045214
H	  49.1810000000	  17.8230000000	  -1.6053045214
S	  43.9292000000	  20.5206000000	   0.6334954786
S	  42.5662000000	  21.5794000000	   1.9781500000
S	  43.3123000000	  22.9893000000	   3.2573500000
S	  42.7400000000	  24.6590000000	   7.8305400000
S	  42.0798000000	  26.6563000000	   7.4016500000
S	  40.6010000000	  27.2794000000	   8.8821600000
S	  41.8046000000	  23.4287000000	   6.3937600000
S	  43.1799000000	  22.3763000000	   5.2865000000
S	  44.1253000000	  30.8145000000	  -0.3840045214
S	  45.4544000000	  29.5163000000	   0.6589400000
S	  45.7640000000	  27.7454000000	  -0.4690045214
S	  48.6563000000	  24.7252000000	  -1.7349045214
S	  48.0569000000	  23.3051000000	  -0.0931045214
S	  46.0027000000	  23.2846000000	   0.3128954786
S	  49.0987000000	  26.5265000000	  -1.0129045214
S	  47.5246000000	  27.7793000000	  -1.5713045214
