23

Li	  30.3238000000	  47.3275000000	  19.7096000000
N	  30.0202000000	  46.5995000000	  21.5822000000
C	  29.0306000000	  47.7172000000	  23.6785000000
C	  29.6404000000	  47.1205000000	  22.5327000000
H	  29.7058000000	  48.0769000000	  24.4101000000
H	  28.4385000000	  48.5890000000	  23.2890000000
H	  28.2486000000	  47.0186000000	  24.1027000000
S	  34.5989000000	  48.8465000000	  28.6863000000
S	  34.0888000000	  47.3058000000	  27.2911000000
S	  32.3608000000	  47.9105000000	  26.1013000000
S	  31.5063000000	  49.9125000000	  21.4272000000
S	  32.2081000000	  49.8748000000	  19.4725000000
S	  32.4445000000	  47.7549000000	  18.9598000000
S	  33.1016000000	  49.4418000000	  22.7676000000
S	  32.8249000000	  47.6892000000	  24.0014000000
S	  21.0823000000	  51.4319000000	  17.1688000000
S	  22.8438000000	  50.7447000000	  18.3383000000
S	  22.1289000000	  49.4449000000	  19.8806000000
S	  26.7701000000	  47.1548000000	  20.9045000000
S	  27.5976000000	  46.9944000000	  19.0165000000
S	  28.9942000000	  48.5148000000	  18.6185000000
S	  24.6491000000	  47.1590000000	  21.0022000000
S	  23.5595000000	  48.9034000000	  21.4101000000
