28

Li	  21.4213000000	   5.5780600000	   2.0873000000
O	  18.3068000000	   3.8282400000	   0.8556610000
O	  19.9021000000	   5.3603700000	   0.9079970000
C	  19.4635000000	   3.2883200000	   0.3281954786
C	  20.1715000000	   4.5338700000	  -0.1858045214
C	  18.6642000000	   5.0082100000	   1.3865400000
H	  19.9847000000	   2.8824000000	   1.2193800000
H	  19.2496000000	   2.3999800000	  -0.3254045214
H	  21.2422000000	   4.4359500000	  -0.3855045214
H	  19.6958000000	   4.8137700000	  -1.0682045214
H	  17.9271000000	   5.7673600000	   0.9369770000
H	  18.5132000000	   5.0555400000	   2.4452000000
S	  22.1645000000	   3.8815000000	   2.9397300000
S	  23.5443000000	   3.9574100000	   1.3985700000
S	  23.8801000000	   2.0941300000	   0.3430954786
S	  21.3273000000	   0.2665281476	  -3.4347045214
S	  19.5539000000	   0.1847281476	  -4.3778045214
S	  19.7199000000	  -0.4981718524	  -6.4403045214
S	  21.8558000000	   2.1064300000	  -2.4950045214
S	  23.8275000000	   2.2424300000	  -1.7362045214
S	  22.3549000000	   7.3380300000	   1.6656200000
S	  21.5346000000	   8.5558400000	   3.1866500000
S	  19.3771000000	   8.2541500000	   3.2554700000
S	  16.0339000000	   7.2880300000	   6.9712500000
S	  15.6335000000	   5.2707300000	   7.5782900000
S	  15.1488000000	   4.1255700000	   5.8760300000
S	  18.1001000000	   7.5569600000	   6.5210300000
S	  18.8035000000	   6.8629800000	   4.7452700000
