28

Li	   4.9226200000	   5.1322100000	  13.3083000000
N	   5.4930100000	   5.5112700000	  15.0445000000
C	   5.1673800000	   4.8387000000	  17.5237000000
C	   5.3420700000	   5.2080900000	  16.1765000000
H	   5.1959400000	   3.7353600000	  17.5977000000
H	   6.0884700000	   5.2158900000	  18.0596000000
H	   4.2947300000	   5.2904700000	  17.8773000000
N	   4.3378900000	   6.6090400000	  12.2560000000
C	   2.7789100000	   8.3360000000	  10.9946000000
C	   3.6650400000	   7.4280800000	  11.6907000000
H	   1.9370800000	   7.8066800000	  10.5603000000
H	   2.4918500000	   9.0959900000	  11.6823000000
H	   3.2767500000	   8.7721900000	  10.1516000000
N	   1.1392700000	   3.3386000000	  13.0616000000
S	   0.7027760000	   4.3474300000	  11.9871000000
O	  -0.7242630426	   4.4263700000	  11.9283000000
O	   1.4721200000	   5.5421700000	  11.7765000000
C	   1.0181600000	   3.4731100000	  10.4084000000
F	   0.4556369574	   4.0260300000	   9.3441500000
F	   0.5369369574	   2.2097100000	  10.4801000000
F	   2.3077100000	   3.4794500000	  10.0938000000
S	   2.4964300000	   3.3833400000	  13.9196000000
O	   2.4622800000	   4.3557900000	  15.0243000000
O	   3.6598400000	   3.2655000000	  13.0871000000
C	   2.2947000000	   1.6848100000	  14.6732000000
F	   2.0599100000	   0.7577040000	  13.7544000000
F	   3.3733700000	   1.3455600000	  15.3151000000
F	   1.3455000000	   1.6007400000	  15.5869000000
