64

Li	  47.6100000000	  47.9900000000	  43.1946000000
O	  47.8750000000	  44.7079000000	  44.2518000000
O	  46.6277000000	  46.4565000000	  43.6635000000
C	  47.2488000000	  45.0849000000	  45.4348000000
C	  46.1218000000	  46.0066000000	  44.9441000000
C	  47.2570000000	  45.2927000000	  43.1514000000
H	  46.8063000000	  44.2114000000	  45.9479000000
H	  47.9223000000	  45.4738000000	  46.1827000000
H	  45.2670000000	  45.3692000000	  44.6591000000
H	  45.8824000000	  46.8547000000	  45.5559000000
H	  47.8946000000	  45.6409000000	  42.3459000000
H	  46.4698000000	  44.5542000000	  42.9079000000
O	  46.4600000000	  49.2680000000	  42.6274000000
O	  45.0052000000	  50.9444000000	  42.0805000000
C	  45.2677000000	  48.6589000000	  42.3546000000
C	  44.3919000000	  49.7170000000	  41.7432000000
C	  46.3397000000	  50.5948000000	  42.0777000000
H	  45.3918000000	  47.7296000000	  41.7437000000
H	  44.7869000000	  48.3788000000	  43.2996000000
H	  44.1666000000	  49.6262000000	  40.7053000000
H	  43.3687000000	  49.6876000000	  42.1726000000
H	  46.9523000000	  51.1791000000	  42.7320000000
H	  46.7335000000	  50.6865000000	  41.0617000000
O	  48.3967000000	  48.4374000000	  38.5188000000
O	  48.3114000000	  46.7426000000	  39.9734000000
C	  49.6533000000	  48.3868000000	  39.2457000000
C	  49.3837000000	  47.5505000000	  40.4528000000
C	  47.5875000000	  47.5080000000	  39.1484000000
H	  50.3301000000	  47.7603000000	  38.7281000000
H	  50.1039000000	  49.3954000000	  39.2978000000
H	  50.2617000000	  46.9938000000	  40.9231000000
H	  49.0138000000	  48.1311000000	  41.2610000000
H	  46.7590000000	  48.0806000000	  39.6997000000
H	  47.0433000000	  46.9776000000	  38.4452000000
N	  46.6606000000	  48.5471000000	  47.4407000000
S	  46.8776000000	  48.1119000000	  48.9507000000
O	  47.9199000000	  47.1558000000	  49.1042000000
O	  46.8935000000	  49.1589000000	  49.9384000000
C	  45.3569000000	  47.0909000000	  49.2041000000
F	  45.4228000000	  46.3687000000	  50.3982000000
F	  45.1535000000	  46.2715000000	  48.2000000000
F	  44.3203000000	  47.8259000000	  49.4327000000
S	  47.6423000000	  49.3940000000	  46.4669000000
O	  47.7308000000	  48.9692000000	  45.0880000000
O	  48.8267000000	  49.8655000000	  47.0092000000
C	  46.7001000000	  50.9940000000	  46.4188000000
F	  46.1313000000	  51.3330000000	  47.6539000000
F	  47.3596000000	  52.0964000000	  46.0456000000
F	  45.7409000000	  50.9091000000	  45.4728000000
N	  51.0691000000	  49.0499000000	  44.5676000000
S	  50.9945000000	  47.6224000000	  43.9017000000
O	  49.6712000000	  47.2636000000	  43.5465000000
O	  52.1718000000	  47.1989000000	  43.0908000000
C	  51.2401000000	  46.6479000000	  45.4238000000
F	  52.1617000000	  47.2252000000	  46.1765000000
F	  51.6750000000	  45.4632000000	  45.1184000000
F	  50.1876000000	  46.5417000000	  46.2042000000
S	  50.5438000000	  50.4004000000	  44.0630000000
O	  50.3635000000	  51.3454000000	  45.1351000000
O	  49.4742000000	  50.2562000000	  43.0995000000
C	  52.0452000000	  51.0011000000	  43.1386000000
F	  51.7471000000	  52.1239000000	  42.4604000000
F	  53.1135000000	  51.1293000000	  43.9247000000
F	  52.3262000000	  50.1412000000	  42.1971000000
