61

Li	  14.2509000000	  43.3556000000	  39.0949000000
N	  11.1762000000	  41.4377000000	  41.2177000000
S	   9.6498400000	  41.3112000000	  41.5810000000
O	   9.1390500000	  42.3171000000	  42.5440000000
O	   8.8131300000	  40.9620000000	  40.4465000000
C	   9.7940000000	  39.7767000000	  42.5618000000
F	   8.7140100000	  39.0275000000	  42.6016000000
F	  10.1242000000	  40.0152000000	  43.8381000000
F	  10.6825000000	  38.9302000000	  42.1352000000
S	  12.1486000000	  42.6725000000	  41.3383000000
O	  11.5830000000	  43.8500000000	  41.9812000000
O	  12.8574000000	  42.8679000000	  40.0974000000
C	  13.4059000000	  42.0663000000	  42.5906000000
F	  14.2468000000	  42.9875000000	  43.0882000000
F	  12.7794000000	  41.4772000000	  43.5899000000
F	  14.1810000000	  41.1738000000	  42.0119000000
N	  17.7546000000	  44.0201000000	  39.2705000000
S	  17.0486000000	  43.9084000000	  40.6426000000
O	  17.3489000000	  44.9703000000	  41.5435000000
O	  15.6863000000	  43.4608000000	  40.5068000000
C	  17.9836000000	  42.5128000000	  41.3441000000
F	  17.5138000000	  42.2246000000	  42.5222000000
F	  19.1929000000	  42.9540000000	  41.4521000000
F	  18.0266000000	  41.4317000000	  40.6332000000
S	  18.2305000000	  45.2323000000	  38.4555000000
O	  18.1806000000	  46.4298000000	  39.1919000000
O	  17.7213000000	  45.3157000000	  37.1149000000
C	  20.0835000000	  44.9748000000	  38.1926000000
F	  20.6643000000	  45.6578000000	  37.1984000000
F	  20.8413000000	  45.3130000000	  39.2433000000
F	  20.3724000000	  43.7249000000	  37.9256000000
N	  12.6536000000	  45.5441000000	  36.6903000000
S	  13.9981000000	  45.9310000000	  37.4311000000
O	  14.3429000000	  45.1982000000	  38.6337000000
O	  15.0416000000	  46.2414000000	  36.4970000000
C	  13.4403000000	  47.5016000000	  38.1271000000
F	  14.4186000000	  48.0020000000	  38.8885000000
F	  12.4173000000	  47.4220000000	  38.8481000000
F	  13.1480000000	  48.3553000000	  37.1928000000
S	  12.0553000000	  44.0452000000	  36.6827000000
O	  12.7770000000	  43.0974000000	  37.4838000000
O	  11.4989000000	  43.6596000000	  35.4244000000
C	  10.5328000000	  44.2567000000	  37.6334000000
F	   9.5913100000	  45.0680000000	  36.9660000000
F	   9.9579500000	  43.1033000000	  37.9507000000
F	  10.7558000000	  44.8306000000	  38.8101000000
N	  14.9783000000	  41.4951000000	  35.5044000000
S	  15.8009000000	  42.6691000000	  36.1093000000
O	  15.9405000000	  43.8325000000	  35.2778000000
O	  15.4605000000	  42.8503000000	  37.5223000000
C	  17.4255000000	  41.9116000000	  36.0201000000
F	  18.4440000000	  42.8103000000	  36.1838000000
F	  17.6583000000	  41.3651000000	  34.7608000000
F	  17.5920000000	  40.9145000000	  36.9200000000
S	  14.1629000000	  41.3026000000	  34.2072000000
O	  14.5894000000	  42.0801000000	  33.0802000000
O	  12.7896000000	  41.2850000000	  34.5404000000
C	  14.4981000000	  39.5621000000	  33.7669000000
F	  14.2837000000	  38.7742000000	  34.8268000000
F	  13.7646000000	  39.0908000000	  32.8163000000
F	  15.7139000000	  39.3686000000	  33.3154000000
