57

Li	  58.5925000000	  24.2968000000	  33.7793000000
O	  60.1131654918	  25.1162000000	  35.1051000000
O	  60.9884054918	  25.7905000000	  36.9518000000
C	  60.6613754918	  24.0057000000	  35.6601000000
C	  60.8056854918	  24.4181000000	  37.1513000000
C	  60.0711554918	  26.0974000000	  35.9946000000
H	  60.0336554918	  23.1416000000	  35.7113000000
H	  61.5513154918	  23.6645000000	  35.1725000000
H	  59.8644354918	  24.1019000000	  37.6624000000
H	  61.6918854918	  23.9244000000	  37.5919000000
H	  60.2847954918	  27.0532000000	  35.5942000000
H	  59.0985000000	  26.0356000000	  36.4387000000
O	  57.2469000000	  27.7885000000	  32.5038000000
O	  57.8548000000	  26.1653000000	  33.9818000000
C	  56.2117000000	  27.7730000000	  33.4585000000
C	  56.6045000000	  26.6142000000	  34.4229000000
C	  58.2562000000	  27.1949000000	  33.1269000000
H	  56.3326000000	  28.7309000000	  34.0008000000
H	  55.2541000000	  27.7160000000	  33.0176000000
H	  56.6374000000	  26.9580000000	  35.4443000000
H	  55.8128000000	  25.8350000000	  34.3503000000
H	  59.0376000000	  26.9970000000	  32.4299000000
H	  58.5776000000	  28.0016000000	  33.7879000000
O	  57.1624000000	  23.9329000000	  32.0115000000
O	  56.0345000000	  25.1720000000	  30.4439000000
C	  55.8045000000	  23.5211000000	  32.0967000000
C	  55.0276000000	  24.5572000000	  31.2830000000
C	  57.2824000000	  24.5687000000	  30.7410000000
H	  55.8465000000	  22.5174000000	  31.5997000000
H	  55.4566000000	  23.4498000000	  33.0890000000
H	  54.1687000000	  24.1323000000	  30.7933000000
H	  54.7149000000	  25.4072000000	  31.9413000000
H	  58.0644000000	  25.2647000000	  30.7913000000
H	  57.4690000000	  23.7734000000	  30.0077000000
N	  55.7251000000	  23.1715000000	  37.2288000000
S	  57.1124000000	  22.7627000000	  36.6563000000
O	  57.3917000000	  23.4369000000	  35.3872000000
O	  58.2012000000	  22.6945000000	  37.6030000000
C	  56.8926000000	  21.0453000000	  35.9265000000
F	  55.6718000000	  20.9577000000	  35.3489000000
F	  56.9421000000	  20.0558000000	  36.7425000000
F	  57.7621000000	  20.7083000000	  34.9963000000
S	  55.2708000000	  24.3663000000	  38.1037000000
O	  56.1223000000	  25.5639000000	  38.0824000000
O	  54.7902000000	  23.9413000000	  39.4070000000
C	  53.6713000000	  24.9106000000	  37.2349000000
F	  52.7568000000	  23.9516000000	  37.3322000000
F	  53.1504000000	  26.0843000000	  37.6804000000
F	  53.9116000000	  24.9854000000	  35.9246000000
S	  68.2326854918	  28.4560000000	  30.4065000000
S	  66.9197854918	  29.9127000000	  31.1870000000
S	  64.9000954918	  29.3544000000	  31.2197000000
S	  62.4782854918	  25.6454000000	  32.8260000000
S	  61.3628054918	  24.7688000000	  31.2626000000
S	  60.1309254918	  23.3411000000	  32.1847000000
S	  62.4800354918	  27.7370000000	  33.0557000000
S	  64.3552454918	  28.6538000000	  33.1556000000
