28

Li	  17.2156000000	  26.4073000000	  42.6693000000
O	  15.5920000000	  25.6488000000	  43.1961000000
O	  14.1576000000	  24.0154000000	  43.8366000000
C	  14.8474000000	  26.2142000000	  44.2785000000
C	  14.0339000000	  24.9903000000	  44.8761000000
C	  15.3720000000	  24.2979000000	  43.2616000000
H	  15.5184000000	  26.5860000000	  45.0486000000
H	  14.1922000000	  27.0146000000	  44.0138000000
H	  14.6850000000	  24.6908000000	  45.6736000000
H	  13.0291000000	  25.3055000000	  45.1990000000
H	  15.2494000000	  23.8614000000	  42.2775000000
H	  16.2292000000	  23.8682000000	  43.7923000000
S	  22.5709000000	  22.8939000000	  47.1835000000
S	  20.5795000000	  22.1071000000	  46.9755000000
S	  19.1545000000	  23.5584000000	  47.4903000000
S	  19.2902000000	  27.8216000000	  44.5831000000
S	  17.9194000000	  29.2871000000	  44.0048000000
S	  16.6896000000	  28.4962000000	  42.4227000000
S	  18.6694000000	  26.6685000000	  46.1800000000
S	  18.4198000000	  24.6215000000	  45.8575000000
S	  11.8964000000	  25.8602000000	  34.5946000000
S	  12.4921000000	  25.5925000000	  36.5745000000
S	  12.6534000000	  23.6359000000	  37.0678000000
S	  17.3901000000	  23.8563000000	  38.9429000000
S	  17.2486000000	  25.3757000000	  40.4454000000
S	  18.6140000000	  25.0946000000	  42.0792000000
S	  15.7617000000	  22.6485000000	  38.6290000000
S	  14.6714000000	  22.8800000000	  36.7649000000
