20

Li	   2.3569700000	  20.2607000000	   8.9560100000
O	   5.7477500000	  20.4387000000	  11.3034000000
O	   3.9945100000	  20.6480000000	   9.9188100000
C	   5.8322700000	  21.6954000000	  10.6416000000
C	   4.7958300000	  21.6406000000	   9.4912300000
C	   4.4671700000	  20.0482000000	  11.0939000000
H	   5.5028600000	  22.5502000000	  11.2489000000
H	   6.9187300000	  21.8308000000	  10.3544000000
H	   4.2684600000	  22.5693000000	   9.3008600000
H	   5.1713800000	  21.3406000000	   8.5060400000
H	   4.3889100000	  18.9415000000	  10.9805000000
H	   3.9036700000	  20.3176000000	  12.0321000000
S	   2.1968000000	  18.1249000000	   8.6397200000
S	   3.8906900000	  17.1372000000	   7.6794100000
S	   5.2820500000	  18.4814000000	   7.0487500000
S	   1.4226000000	  20.9837000000	   6.6318800000
S	   1.1502800000	  22.1043000000	   8.4938200000
S	   0.8496245082	  20.8596000000	  10.1932000000
S	   3.3703000000	  21.2796000000	   5.8734500000
S	   4.4045000000	  19.5040000000	   5.4263200000
