20

Li	  57.2696000000	  46.8813000000	  11.3030000000
O	  56.0337000000	  46.2533000000	  12.6523000000
O	  56.0104000000	  45.1133000000	  14.4571000000
C	  55.3437000000	  47.1410000000	  13.4671000000
C	  55.3737000000	  46.3510000000	  14.7822000000
C	  55.8423000000	  45.0138000000	  13.1679000000
H	  55.8828000000	  48.1216000000	  13.4949000000
H	  54.3043000000	  47.2989000000	  13.3021000000
H	  55.8493000000	  46.8572000000	  15.6563000000
H	  54.3467000000	  46.0733000000	  15.0642000000
H	  54.9106000000	  44.5941000000	  12.9118000000
H	  56.5861000000	  44.3243000000	  12.7536000000
S	  56.2920000000	  47.7853000000	   9.7148500000
S	  55.1223000000	  46.8592000000	   8.2145400000
S	  56.3813000000	  45.9279000000	   6.8277400000
S	  58.5664000000	  44.2837000000	  10.3044000000
S	  59.5180854918	  46.1338000000	  10.4164000000
S	  59.1276000000	  47.3105000000	  12.0894000000
S	  58.6024000000	  43.7232000000	   8.2541700000
S	  56.7324000000	  43.8993000000	   7.2273300000
