43

Li	  50.2343000000	  30.1328000000	  16.7378000000
O	  49.4621000000	  30.0240000000	  12.7526000000
O	  49.7317000000	  29.7600000000	  15.0007000000
C	  49.9138000000	  28.6852000000	  12.8983000000
C	  49.6760000000	  28.4752000000	  14.4081000000
C	  49.9615000000	  30.6565000000	  13.8824000000
H	  49.3585000000	  28.0119000000	  12.2387000000
H	  50.9933000000	  28.5248000000	  12.7290000000
H	  48.8532000000	  27.8580000000	  14.5904000000
H	  50.5166000000	  27.8772000000	  14.8451000000
H	  51.0188000000	  30.8641000000	  13.8335000000
H	  49.4633000000	  31.6675000000	  14.0809000000
N	  53.6315000000	  27.7955000000	  17.0181000000
S	  53.9472000000	  28.1473000000	  15.5189000000
O	  53.0084000000	  27.6332000000	  14.5543000000
O	  54.2838000000	  29.5533000000	  15.2998000000
C	  55.4059000000	  27.1075000000	  15.1945000000
F	  56.4819000000	  27.3414000000	  15.9060000000
F	  55.8034000000	  27.3289000000	  13.9347000000
F	  55.1977000000	  25.7242000000	  15.3400000000
S	  52.2476000000	  27.7857000000	  17.7620000000
O	  51.9559000000	  26.4704000000	  18.2549000000
O	  51.1705000000	  28.6443000000	  17.2651000000
C	  52.6945000000	  28.7173000000	  19.2505000000
F	  53.0340000000	  29.9257000000	  18.9781000000
F	  51.6923000000	  29.0645000000	  20.0375000000
F	  53.6118000000	  28.1317000000	  20.0462000000
S	  52.0975000000	  31.4717000000	  16.3968000000
S	  51.3150000000	  33.4036000000	  15.7358000000
S	  52.3512000000	  34.0636000000	  14.0847000000
S	  51.1934000000	  35.8830000000	   9.5449300000
S	  53.0943000000	  36.6564000000	   9.3289500000
S	  54.5101000000	  35.0884000000	   9.3997800000
S	  50.7278000000	  35.7029000000	  11.5103000000
S	  51.3350000000	  33.8439000000	  12.2087000000
S	  49.6019000000	  30.8751000000	  18.5930000000
S	  48.1338000000	  30.8761000000	  17.1411000000
S	  47.3434000000	  32.7421000000	  16.7234000000
S	  46.9280000000	  36.4806000000	  13.1554000000
S	  45.5362000000	  37.4241000000	  11.8631000000
S	  46.5981000000	  38.5850000000	  10.3749000000
S	  45.9272000000	  34.9920000000	  14.3911000000
S	  47.0062000000	  33.2476000000	  14.6709000000
