39

Li	  58.5278000000	  37.8803000000	  11.9617000000
O	  58.6960000000	  38.6218000000	  10.3796000000
O	  58.9094000000	  37.9732000000	   8.2269400000
C	  59.9768254918	  38.9351000000	   9.9444000000
C	  60.2342754918	  38.2864000000	   8.5956100000
C	  58.0620000000	  38.6144000000	   9.1238600000
H	  60.0612354918	  40.0238000000	   9.8936800000
H	  60.7850254918	  38.7926000000	  10.6299000000
H	  60.7870554918	  38.9503000000	   7.8948600000
H	  60.7482254918	  37.3795000000	   8.8765500000
H	  57.0352000000	  38.2799000000	   9.2243200000
H	  57.9876000000	  39.6620000000	   8.7900900000
O	  60.2948654918	  34.3214000000	  11.4004000000
O	  59.5827154918	  36.2477000000	  12.0599000000
C	  60.4757554918	  34.3076000000	  12.8036000000
C	  59.8352254918	  35.5969000000	  13.2999000000
C	  59.3411554918	  35.2567000000	  11.1668000000
H	  59.9628654918	  33.3630000000	  13.2150000000
H	  61.5097054918	  34.3433000000	  12.9906000000
H	  58.8770000000	  35.4260000000	  13.7413000000
H	  60.5325154918	  36.1479000000	  13.9177000000
H	  59.3329154918	  35.5936000000	  10.1622000000
H	  58.3733000000	  34.8285000000	  11.4105000000
S	  48.5451000000	  33.7098000000	  15.1608000000
S	  50.0257000000	  34.6268000000	  14.0338000000
S	  49.5732000000	  34.9860000000	  12.0342000000
S	  54.1917000000	  34.8060000000	  10.8287000000
S	  55.8780000000	  36.1306000000	  10.8169000000
S	  56.5451000000	  36.7171000000	  12.7924000000
S	  52.5787000000	  35.5704000000	   9.9284400000
S	  51.0542000000	  36.3709000000	  11.2775000000
S	  59.4398154918	  39.4211000000	  13.4943000000
S	  57.6207000000	  40.5297000000	  13.3462000000
S	  57.3426000000	  41.5001000000	  11.4850000000
S	  55.4818000000	  41.0196000000	   7.2972000000
S	  53.8284000000	  41.6401000000	   6.1480800000
S	  53.0771000000	  43.5505000000	   6.8651100000
S	  54.8898000000	  40.2275000000	   9.1987400000
S	  55.3518000000	  41.5022000000	  10.8317000000
