76

Li	  15.2265000000	  39.7759000000	  39.8812000000
N	  12.7871000000	  39.2616000000	  43.2641000000
S	  11.8146000000	  40.1737000000	  44.0508000000
O	  12.3803000000	  41.1939000000	  44.9050000000
O	  10.7140000000	  40.5230000000	  43.2722000000
C	  11.1546000000	  39.0204000000	  45.1686000000
F	  11.9193000000	  38.6753000000	  46.1554000000
F	  10.8014000000	  37.8700000000	  44.5719000000
F	  10.0126000000	  39.4850000000	  45.6983000000
S	  14.3293000000	  39.5588000000	  43.2277000000
O	  14.9127000000	  40.5974000000	  44.0684000000
O	  14.7991000000	  39.5598000000	  41.8856000000
C	  15.0516000000	  38.0166000000	  43.8861000000
F	  14.7954000000	  36.9902000000	  43.0476000000
F	  16.3107000000	  38.1690000000	  43.8413000000
F	  14.7789000000	  37.7195000000	  45.1307000000
N	  17.8467000000	  42.2174000000	  39.9149000000
S	  17.9622000000	  41.6879000000	  41.3746000000
O	  19.1554000000	  41.9858000000	  42.0229000000
O	  16.7739000000	  41.6997000000	  42.1983000000
C	  18.1716000000	  39.8831000000	  40.9888000000
F	  18.2338000000	  39.1555000000	  42.0346000000
F	  19.2221000000	  39.6811000000	  40.1908000000
F	  17.1415000000	  39.4325000000	  40.3122000000
S	  18.5086000000	  43.4649000000	  39.3017000000
O	  19.6240000000	  44.0652000000	  39.9557000000
O	  17.4815000000	  44.3452000000	  38.8028000000
C	  19.2484000000	  42.7307000000	  37.7815000000
F	  20.2369000000	  41.9262000000	  37.9578000000
F	  18.2436000000	  42.0932000000	  37.1470000000
F	  19.7435000000	  43.7126000000	  36.9520000000
N	  13.0124000000	  43.2873000000	  38.5026000000
S	  14.0089000000	  42.7829000000	  39.5846000000
O	  14.3020000000	  41.3437000000	  39.5272000000
O	  15.1129000000	  43.6860000000	  39.7442000000
C	  12.9943000000	  42.8592000000	  41.1251000000
F	  13.6328000000	  42.3845000000	  42.1756000000
F	  11.8423000000	  42.2346000000	  40.9819000000
F	  12.7302000000	  44.0761000000	  41.4743000000
S	  12.5967000000	  42.5847000000	  37.2118000000
O	  11.7368000000	  41.4746000000	  37.4020000000
O	  13.6271000000	  42.5308000000	  36.1977000000
C	  11.5436000000	  43.8845000000	  36.6838000000
F	  12.1311000000	  45.0236000000	  36.5593000000
F	  10.9724000000	  43.5004000000	  35.5442000000
F	  10.5302000000	  44.0086000000	  37.6021000000
N	  14.6055000000	  35.2627000000	  40.5802000000
S	  13.2504000000	  34.4783000000	  40.3667000000
O	  12.6457000000	  34.5955000000	  39.0589000000
O	  13.2380000000	  33.2163000000	  41.0348000000
C	  12.0945000000	  35.4791000000	  41.3798000000
F	  12.1212000000	  36.8123000000	  41.0849000000
F	  12.3633000000	  35.3949000000	  42.6745000000
F	  10.8118000000	  35.1219000000	  41.3704000000
S	  15.4046000000	  36.1384000000	  39.5212000000
O	  15.1394000000	  37.5354000000	  39.7116000000
O	  15.3132000000	  35.6125000000	  38.1939000000
C	  17.1806000000	  36.0006000000	  40.1145000000
F	  17.3760000000	  36.4810000000	  41.3398000000
F	  17.4553000000	  34.7203000000	  40.2417000000
F	  18.0246000000	  36.4698000000	  39.2152000000
N	  14.6587000000	  38.1372000000	  35.7209000000
S	  15.4836000000	  39.2325000000	  36.3732000000
O	  15.4654000000	  40.4112000000	  35.5851000000
O	  15.2334000000	  39.4292000000	  37.7963000000
C	  17.1759000000	  38.6082000000	  36.1888000000
F	  17.6692000000	  38.7591000000	  34.9565000000
F	  17.2554000000	  37.3385000000	  36.6182000000
F	  17.9582000000	  39.3573000000	  36.8911000000
S	  13.2304000000	  37.6586000000	  36.1057000000
O	  12.2869000000	  38.6645000000	  36.5690000000
O	  13.2166000000	  36.3361000000	  36.6323000000
C	  12.6705000000	  37.2820000000	  34.3203000000
F	  11.4020000000	  36.9630000000	  34.3953000000
F	  12.7329000000	  38.3282000000	  33.5480000000
F	  13.4344000000	  36.3517000000	  33.7930000000
