24

Li	   2.5287100000	  13.5826000000	  10.3562000000
N	   0.1246245082	  11.7763000000	   7.3273100000
S	  -0.9640754918	  11.7735000000	   6.1845000000
O	  -2.1725754918	  11.0603000000	   6.6240600000
O	  -1.1167754918	  13.0302000000	   5.4935500000
C	  -0.1867754918	  10.7336000000	   4.9665800000
F	   1.1009300000	  11.0128000000	   4.7304000000
F	  -0.7234754918	  10.9029000000	   3.7688600000
F	  -0.2022754918	   9.4217300000	   5.2472300000
S	  -0.0795754918	  12.6151000000	   8.6568500000
O	  -1.1209754918	  13.6377000000	   8.5305400000
O	   1.1591000000	  12.9786000000	   9.3009700000
C	  -0.8040754918	  11.4284000000	   9.8265900000
F	  -0.9723754918	  11.8952000000	  11.0533000000
F	  -2.0861754918	  11.2215000000	   9.5039300000
F	  -0.2476754918	  10.2735000000	   9.9576700000
S	   4.1855600000	  12.3458000000	  10.4586000000
S	   4.2150700000	  12.4905000000	   8.2981300000
S	   5.9989600000	  13.3950000000	   7.4866200000
S	   4.2933700000	  17.3989000000	   9.1375300000
S	   3.6719300000	  16.5359000000	  11.0480000000
S	   1.7651900000	  15.5972000000	  10.8877000000
S	   6.1152700000	  16.8644000000	   8.2571400000
S	   5.7679300000	  15.3923000000	   6.8384900000
