28

Li	  16.0861000000	  26.0608000000	  39.1044000000
O	  17.3196000000	  26.8865000000	  38.0887000000
O	  19.1251000000	  28.1241000000	  37.8890000000
C	  18.3641000000	  26.0270000000	  37.5104000000
C	  19.6099000000	  26.7913000000	  37.9623000000
C	  17.7606000000	  28.1008000000	  37.9355000000
H	  18.2751000000	  25.0852000000	  37.8440000000
H	  18.3375000000	  25.9813000000	  36.3959000000
H	  19.7843000000	  26.5264000000	  39.0265000000
H	  20.5320000000	  26.6146000000	  37.4679000000
H	  17.3756000000	  28.7533000000	  37.2352000000
H	  17.5298000000	  28.6125000000	  38.8738000000
S	  16.3701000000	  25.5475000000	  50.2529000000
S	  16.9530000000	  25.1225000000	  48.2760000000
S	  18.8278000000	  26.0499000000	  47.9484000000
S	  16.8969000000	  27.4173000000	  43.5998000000
S	  16.8875000000	  26.5600000000	  41.7627000000
S	  15.3738000000	  27.5720000000	  40.6543000000
S	  18.7265000000	  27.4648000000	  44.6461000000
S	  18.4362000000	  27.7883000000	  46.7368000000
S	   5.2860000000	  27.2690000000	  37.9931000000
S	   6.9846900000	  28.2006000000	  39.0184000000
S	   8.0793400000	  26.5754000000	  39.7622000000
S	  12.5560000000	  25.1391000000	  40.1786000000
S	  13.6489000000	  23.8271000000	  39.0090000000
S	  15.7342000000	  24.0463000000	  39.2521000000
S	  11.6728000000	  26.6492000000	  39.0767000000
S	   9.6732400000	  26.0387000000	  38.4493000000
