28

Li	  17.0500000000	  14.7611000000	  33.6422000000
O	  19.5504000000	  11.6913000000	  34.9171000000
O	  18.0837000000	  13.3403000000	  34.4604000000
C	  19.3727000000	  12.4522000000	  36.0397000000
C	  18.0358000000	  13.0827000000	  35.8773000000
C	  18.8015000000	  12.2861000000	  33.9218000000
H	  19.5893000000	  11.8874000000	  37.0189000000
H	  20.0534000000	  13.2428000000	  35.9926000000
H	  17.3052000000	  12.3394000000	  36.1332000000
H	  18.0252000000	  13.9858000000	  36.4879000000
H	  19.3972000000	  12.6380000000	  33.0806000000
H	  18.1022000000	  11.6009000000	  33.4875000000
S	  15.0553000000	  14.0086000000	  34.4530000000
S	  15.4983000000	  12.2985000000	  33.3579000000
S	  16.1484000000	  12.7287000000	  31.4176000000
S	  14.1536000000	   8.8423600000	  28.7022000000
S	  14.7580000000	   7.3505000000	  27.3148000000
S	  15.0230000000	   5.5642900000	  28.3866000000
S	  15.2777000000	  10.6076000000	  28.7356000000
S	  14.6125000000	  12.1558000000	  30.0535000000
S	  18.6583000000	  21.6952000000	  41.2040000000
S	  18.9425000000	  19.8104000000	  40.2850000000
S	  20.6345000000	  19.6661000000	  39.0660000000
S	  18.5788000000	  16.6084000000	  35.4255000000
S	  17.2177000000	  17.1752000000	  33.8388000000
S	  17.6125000000	  16.0937000000	  32.0226000000
S	  20.0147000000	  18.0401000000	  36.0029000000
S	  20.6394000000	  17.8643000000	  37.9055000000
