54

Li	   8.0713200000	   5.7086500000	  52.9577000000
N	   7.8485100000	   9.6153400000	  52.7063000000
S	   7.5280400000	  11.1616000000	  52.9019000000
O	   8.2848700000	  11.9719000000	  52.0669000000
O	   6.1703900000	  11.4945000000	  53.2448000000
C	   8.3778900000	  11.4682000000	  54.5441000000
F	   9.6942000000	  11.1689000000	  54.4506000000
F	   7.9533400000	  10.7337000000	  55.5256000000
F	   8.3699200000	  12.7384000000	  54.9854000000
S	   6.7424500000	   8.5448100000	  52.3322000000
O	   5.3601500000	   8.8515700000	  52.8011000000
O	   7.2296000000	   7.1975400000	  52.4146000000
C	   6.5876100000	   8.8511500000	  50.5321000000
F	   7.7748500000	   8.6760400000	  49.9034000000
F	   5.7302700000	   8.1025700000	  49.8298000000
F	   6.1510100000	  10.0499000000	  50.2926000000
N	   4.5891400000	   5.5399200000	  53.3862000000
S	   5.2867700000	   4.2555400000	  52.8093000000
O	   6.7006900000	   4.4635500000	  52.6417000000
O	   4.8361200000	   2.9441400000	  53.2547000000
C	   4.5823200000	   4.3992300000	  51.1203000000
F	   3.2706200000	   4.1583300000	  51.1406000000
F	   5.0961400000	   3.5150500000	  50.2378000000
F	   4.6532700000	   5.5881800000	  50.5618000000
S	   4.0331400000	   5.8540600000	  54.8133000000
O	   4.1227100000	   7.2980100000	  55.0973000000
O	   4.4958700000	   4.8649800000	  55.7675000000
C	   2.2567800000	   5.4387600000	  54.7108000000
F	   1.6588600000	   5.2181800000	  55.8798000000
F	   1.5192200000	   6.3657600000	  54.1341000000
F	   2.0299400000	   4.3915500000	  53.9727000000
N	   7.9906500000	   5.6454600000	  57.1741000000
S	   8.6495400000	   4.2963700000	  57.6350000000
O	   7.6744700000	   3.2901500000	  58.0098000000
O	   9.8492600000	   3.9022100000	  56.8708000000
C	   9.4157100000	   4.7407300000	  59.1888000000
F	   8.5671100000	   5.2353500000	  60.0770828581
F	  10.4441000000	   5.6078900000	  59.0314000000
F	   9.9918100000	   3.7686300000	  59.8296828581
S	   8.1160600000	   6.2798900000	  55.7481000000
O	   7.1495400000	   7.3053100000	  55.4174000000
O	   8.3185700000	   5.2379700000	  54.7340000000
C	   9.7267700000	   7.1951300000	  55.8124000000
F	   9.9100300000	   7.8758600000	  56.9201000000
F	  10.7640000000	   6.3036900000	  55.8727000000
F	  10.0328000000	   8.0002300000	  54.7756000000
S	  14.1200000000	   3.4268800000	  49.2214000000
S	  12.4794000000	   2.1171200000	  49.7805000000
S	  10.4664000000	   2.6588300000	  49.3625000000
S	  10.6512000000	   6.5533200000	  52.0543000000
S	  11.9706000000	   7.4791300000	  50.6731000000
S	  13.9013000000	   6.5624200000	  50.5532000000
S	   9.2228300000	   5.4745500000	  50.8828000000
S	   9.5402900000	   3.3614600000	  51.0351000000
