72

Li	  37.0377000000	   2.8418100000	  22.7031000000
O	  33.4971000000	   4.6789600000	  23.1713000000
O	  35.3890000000	   3.7466400000	  22.6788000000
C	  33.7499000000	   5.2546500000	  21.9223000000
C	  34.7863000000	   4.2299100000	  21.4483000000
C	  34.7018000000	   4.3548000000	  23.7480000000
H	  32.8428000000	   5.4593200000	  21.2989000000
H	  34.2401000000	   6.2602600000	  21.9337000000
H	  34.2582000000	   3.4223100000	  21.0052000000
H	  35.4381000000	   4.7537100000	  20.7556000000
H	  35.1738000000	   5.3234100000	  24.0079000000
H	  34.4431000000	   3.7243700000	  24.6190000000
N	  39.3326000000	   2.1340200000	  19.6986000000
S	  38.1503000000	   3.0747000000	  19.9798000000
O	  37.2919000000	   2.4993900000	  20.9401000000
O	  38.3723000000	   4.4764700000	  19.9990000000
C	  37.0326000000	   2.8744500000	  18.5396000000
F	  35.8931000000	   3.5735500000	  18.6584000000
F	  36.7452000000	   1.6047000000	  18.4833000000
F	  37.5398000000	   3.1830800000	  17.3912000000
S	  40.8451000000	   2.4767100000	  19.9480000000
O	  41.5626000000	   1.2661500000	  20.3514000000
O	  41.1799000000	   3.7161900000	  20.6094000000
C	  41.3069000000	   2.8733900000	  18.1737000000
F	  40.4152000000	   3.6527700000	  17.5659000000
F	  42.4528000000	   3.4571600000	  18.0818000000
F	  41.3611000000	   1.7678900000	  17.3537000000
N	  41.9612000000	   1.8318800000	  25.4925000000
S	  42.9642000000	   2.5509500000	  26.3808000000
O	  44.1029000000	   3.1815500000	  25.7463000000
O	  42.2774000000	   3.2126600000	  27.4709000000
C	  43.6927000000	   1.0697700000	  27.1601000000
F	  44.6516000000	   0.5078948590	  26.3486000000
F	  42.7822000000	   0.1158948590	  27.4410000000
F	  44.3067000000	   1.3731400000	  28.3046000000
S	  41.6468000000	   2.0371300000	  23.9343000000
O	  42.3426000000	   1.1032200000	  23.0988000000
O	  41.6063000000	   3.4156800000	  23.5063000000
C	  39.9137000000	   1.5269500000	  23.8170000000
F	  39.7914000000	   0.2156948590	  23.6559000000
F	  39.2055000000	   1.8413400000	  24.9089000000
F	  39.3520000000	   2.1710900000	  22.8537000000
N	  36.4320000000	  -0.9115051410	  24.0881000000
S	  35.5857000000	   0.3784948590	  24.3817000000
O	  34.8545000000	   0.5051948590	  25.6347000000
O	  36.3605000000	   1.5327300000	  23.9249000000
C	  34.2321000000	   0.2612948590	  23.1834000000
F	  33.3050000000	  -0.6335051410	  23.4881000000
F	  34.6715000000	  -0.0999051410	  21.9792000000
F	  33.6191000000	   1.4376800000	  23.0935000000
S	  36.9936000000	  -2.0149051410	  25.0937000000
O	  36.6162000000	  -1.7856051410	  26.4830000000
O	  38.3736000000	  -2.4678051410	  24.8004000000
C	  35.9645000000	  -3.3883051410	  24.6250000000
F	  35.9641000000	  -3.5310051410	  23.3216000000
F	  36.5322000000	  -4.5127051410	  25.0244000000
F	  34.6994000000	  -3.3088051410	  25.1145000000
N	  39.5822000000	   6.2551800000	  24.6852000000
S	  38.8713000000	   5.6684800000	  23.4081000000
O	  39.7465000000	   5.4220000000	  22.3427000000
O	  38.0082000000	   4.5831400000	  23.8111000000
C	  37.8669000000	   7.1141100000	  22.8684000000
F	  37.2725000000	   6.7325500000	  21.7779000000
F	  38.6383000000	   8.0796400000	  22.5846000000
F	  37.0568000000	   7.4886400000	  23.8543000000
S	  41.1199000000	   6.3302700000	  24.9143000000
O	  41.8678000000	   6.1745200000	  23.6723000000
O	  41.5374000000	   5.6435900000	  26.1445000000
C	  41.2864000000	   8.0813800000	  25.3705000000
F	  40.4302000000	   8.5633800000	  26.2421000000
F	  42.4119000000	   8.3845100000	  25.9221000000
F	  41.0550000000	   8.9111700000	  24.3618000000
