53

Li	  33.4971000000	  36.0566000000	  33.8218000000
O	  34.1659000000	  37.7811000000	  34.4424000000
O	  35.7865000000	  38.9088000000	  35.6198000000
C	  33.6248000000	  38.2443000000	  35.5440000000
C	  34.7083000000	  38.6948000000	  36.4174000000
C	  35.4780000000	  38.3491000000	  34.4349000000
H	  32.9073000000	  39.0850000000	  35.3213000000
H	  33.1166000000	  37.5162000000	  36.1125000000
H	  34.4178000000	  39.6271000000	  36.9093000000
H	  34.9073000000	  37.9468000000	  37.1329000000
H	  36.1768000000	  37.5732000000	  34.1819000000
H	  35.5085000000	  39.0648000000	  33.5770000000
O	  32.1043000000	  36.4948000000	  32.8016000000
O	  30.9134000000	  36.0546000000	  30.8860000000
C	  31.5963000000	  37.7692000000	  32.3385000000
C	  31.0096000000	  37.4587000000	  30.8924000000
C	  31.3133000000	  35.5377000000	  32.0988000000
H	  30.6628000000	  37.7830000000	  32.9288000000
H	  32.2194000000	  38.5802000000	  32.6153000000
H	  30.0001000000	  37.7694000000	  30.8511000000
H	  31.5640000000	  37.9407000000	  30.1177000000
H	  31.9022000000	  34.5731000000	  31.9396000000
H	  30.3557000000	  35.3421000000	  32.6143000000
N	  37.2444000000	  35.5207000000	  31.8661000000
S	  35.7820000000	  35.0911000000	  31.6205000000
O	  35.5132000000	  33.7372000000	  31.3361000000
O	  34.8589000000	  35.8079000000	  32.4547000000
C	  35.5242000000	  35.9322000000	  30.0341000000
F	  36.3937000000	  35.5447000000	  29.1222000000
F	  35.5768000000	  37.2585000000	  30.0631000000
F	  34.3463000000	  35.5273000000	  29.5115000000
S	  38.3999000000	  34.4957000000	  31.9069000000
O	  38.7996000000	  33.9455000000	  30.5842000000
O	  38.2327000000	  33.6105000000	  33.0505000000
C	  39.7639000000	  35.6027000000	  32.4790000000
F	  40.5233000000	  35.9421000000	  31.4538000000
F	  39.2267000000	  36.7186000000	  32.9543000000
F	  40.5522000000	  35.0919000000	  33.4556000000
N	  35.8141000000	  35.5068000000	  36.5133000000
S	  37.3749000000	  35.8638000000	  36.6180000000
O	  38.2277000000	  35.2015000000	  35.6538000000
O	  37.7009000000	  37.2479000000	  36.7864000000
C	  37.8103000000	  35.1270000000	  38.2543000000
F	  39.0462000000	  35.3815000000	  38.6387000000
F	  37.6021000000	  33.8196000000	  38.3163000000
F	  37.0265000000	  35.6199000000	  39.1907000000
S	  35.2075000000	  34.2342000000	  35.8132000000
O	  36.1863000000	  33.2754000000	  35.4278000000
O	  34.0868000000	  34.5345000000	  34.9216000000
C	  34.3153000000	  33.4517000000	  37.2510000000
F	  35.1109000000	  33.1365000000	  38.2882000000
F	  33.4121000000	  34.2510000000	  37.7729000000
F	  33.6674000000	  32.3151000000	  36.9434000000
