64

Li	  14.3376000000	  27.6600000000	  35.1066000000
O	  16.5851000000	  29.2731000000	  31.8957000000
O	  15.7590000000	  28.3300000000	  33.8092000000
C	  17.5904000000	  29.5238000000	  32.8881000000
C	  16.9537000000	  28.8723000000	  34.2123000000
C	  15.8487000000	  28.2288000000	  32.4870000000
H	  18.6000000000	  29.2358000000	  32.6509000000
H	  17.6084000000	  30.5608000000	  32.9568000000
H	  17.4837000000	  27.9763000000	  34.5748000000
H	  16.7584000000	  29.5476000000	  35.0284000000
H	  14.9421000000	  28.1415000000	  31.9652000000
H	  16.4535000000	  27.3270000000	  32.2750000000
O	  14.3821000000	  26.2439000000	  36.2845000000
O	  14.6162000000	  24.5796000000	  37.8703000000
C	  15.8371000000	  26.0584000000	  36.4839000000
C	  15.8505000000	  24.7169000000	  37.1864000000
C	  13.7830000000	  25.1923000000	  36.9462000000
H	  16.4025000000	  25.8215000000	  35.5690000000
H	  16.2678000000	  26.8465000000	  37.0992000000
H	  16.0804000000	  23.9414000000	  36.4291000000
H	  16.6331000000	  24.5023000000	  37.8541000000
H	  12.8793000000	  25.6008000000	  37.4468000000
H	  13.4239000000	  24.3121000000	  36.3574000000
O	  11.4810000000	  30.4304000000	  34.4590000000
O	  12.7746000000	  28.5983000000	  34.6076000000
C	  10.5773000000	  29.2842000000	  34.3844000000
C	  11.5086000000	  28.1475000000	  34.3540000000
C	  12.7034000000	  29.9148000000	  34.1199000000
H	   9.8644000000	  29.2166000000	  35.2288000000
H	   9.8918400000	  29.3577000000	  33.5610000000
H	  11.2984000000	  27.3323000000	  35.0694000000
H	  11.3988000000	  27.7062000000	  33.4102000000
H	  12.7126000000	  29.9952000000	  33.0161000000
H	  13.4760000000	  30.4992000000	  34.6240000000
N	  11.7320000000	  24.9243000000	  32.6698000000
S	  10.3872000000	  25.2115000000	  31.9040000000
O	   9.4573200000	  25.9783000000	  32.6528000000
O	  10.6194000000	  25.3652000000	  30.4801000000
C	   9.6164400000	  23.5810000000	  31.9379000000
F	  10.5825000000	  22.6734000000	  31.8008000000
F	   8.6761100000	  23.4997000000	  31.0045000000
F	   9.0917600000	  23.3020000000	  33.0984000000
S	  13.1233000000	  25.4094000000	  32.2770000000
O	  13.7355000000	  26.1862000000	  33.3498000000
O	  13.3368000000	  25.8074000000	  30.9275000000
C	  13.9810000000	  23.7479000000	  32.4203000000
F	  15.3100000000	  23.8034000000	  32.3686000000
F	  13.6184000000	  23.2566000000	  33.5758000000
F	  13.5492000000	  22.9163000000	  31.4781000000
N	  15.1253000000	  29.9239000000	  39.0544000000
S	  14.0374000000	  29.7267000000	  37.9409000000
O	  13.2985000000	  30.8971000000	  37.5833000000
O	  14.5176000000	  28.9004000000	  36.8756000000
C	  12.9373000000	  28.5661000000	  38.7872000000
F	  11.9553000000	  28.1318000000	  38.0041000000
F	  12.3229000000	  29.1493000000	  39.8089000000
F	  13.5669000000	  27.4361000000	  39.2673000000
S	  15.3446000000	  31.1779000000	  39.9757000000
O	  14.8992000000	  30.9211000000	  41.3477000000
O	  15.1330000000	  32.4620000000	  39.4038000000
C	  17.2153000000	  31.1285000000	  40.1003000000
F	  17.8442000000	  31.6203000000	  39.0557000000
F	  17.5939000000	  31.8381000000	  41.1164000000
F	  17.6538000000	  29.9427000000	  40.2967000000
