39

Li	  34.7141000000	   3.7231300000	  29.9165000000
N	  33.1925000000	   1.8060700000	  33.3454000000
S	  32.7741000000	   2.2381400000	  31.9021000000
O	  31.7027000000	   3.1402800000	  31.8352000000
O	  33.9012000000	   2.3835600000	  31.0232000000
C	  32.0257000000	   0.7256948590	  31.2329000000
F	  32.7481000000	  -0.3592051410	  31.3178000000
F	  31.6482000000	   0.7773948590	  29.9731000000
F	  30.8699000000	   0.4367948590	  31.8470000000
S	  33.1949000000	   2.6718500000	  34.6422000000
O	  32.6168000000	   3.9429100000	  34.5055000000
O	  34.4012000000	   2.5525000000	  35.4329000000
C	  31.8507000000	   1.8065000000	  35.6511000000
F	  30.6640000000	   2.0086400000	  35.0776000000
F	  32.0667000000	   0.5099948590	  35.8009000000
F	  31.7503000000	   2.2925900000	  36.8826000000
N	  33.2108000000	   6.8851600000	  30.6628000000
S	  34.4819000000	   6.7175100000	  31.5661000000
O	  34.2998000000	   7.2431600000	  32.9675000000
O	  35.1787000000	   5.4881700000	  31.4302000000
C	  35.5217000000	   7.9680300000	  30.7414000000
F	  35.4711000000	   7.9151200000	  29.4196000000
F	  36.8002000000	   7.7806200000	  31.1271000000
F	  35.2401000000	   9.1689500000	  31.1443000000
S	  32.4702000000	   5.8124900000	  29.7635000000
O	  31.0376000000	   5.6833900000	  29.9888000000
O	  33.2208000000	   4.6366700000	  29.4358000000
C	  32.3947000000	   6.7492800000	  28.1489000000
F	  31.8608000000	   7.9227600000	  28.3733000000
F	  33.6347000000	   6.9859500000	  27.6666000000
F	  31.5881000000	   6.1946500000	  27.2053000000
S	  36.3634000000	   0.7059948590	  26.1959000000
S	  38.2364000000	   0.0638948590	  25.4640000000
S	  39.2236000000	  -1.2059051410	  26.9166000000
S	  38.7600000000	   1.9699800000	  30.7708000000
S	  36.6789000000	   2.2565200000	  30.1265000000
S	  36.4508000000	   3.8261100000	  28.6314000000
S	  39.7321000000	   0.1127948590	  30.2553000000
S	  40.4526000000	  -0.1753051410	  28.3051000000
