53

Li	  15.4214000000	  34.5611000000	  37.5540000000
O	  17.5265000000	  33.2002000000	  33.9486000000
O	  16.6168000000	  34.3864000000	  35.6642000000
C	  18.2280000000	  34.5324000000	  33.9816000000
C	  17.8313000000	  35.0292000000	  35.4457000000
C	  16.8704000000	  33.0766000000	  35.1888000000
H	  19.3397000000	  34.5053000000	  33.9597000000
H	  17.7644000000	  35.2286000000	  33.3013000000
H	  18.4452000000	  34.6147000000	  36.2853000000
H	  17.7744000000	  36.1157000000	  35.6031000000
H	  15.9729000000	  32.5380000000	  34.9250000000
H	  17.5206000000	  32.4791000000	  35.7246000000
O	  12.8084000000	  37.0046000000	  36.1328000000
O	  13.9666000000	  35.2048000000	  36.6913000000
C	  11.8514000000	  36.0313000000	  36.2262000000
C	  12.6474000000	  34.7578000000	  36.6319000000
C	  13.9207000000	  36.3168000000	  35.8547000000
H	  11.1720000000	  36.3834000000	  37.0510000000
H	  11.4069000000	  36.0130000000	  35.2318000000
H	  12.2834000000	  34.3743000000	  37.6305000000
H	  12.4021000000	  34.1457000000	  35.6815000000
H	  13.8466000000	  36.1036000000	  34.7214000000
H	  14.6894000000	  37.0306000000	  36.0589000000
N	  15.5725000000	  31.1623000000	  38.8920000000
S	  14.7118000000	  31.0961000000	  37.6280000000
O	  14.5061000000	  32.4331000000	  37.0693000000
O	  15.0662000000	  30.0339000000	  36.7451000000
C	  13.0703000000	  30.6153000000	  38.4532000000
F	  12.2269000000	  30.1459000000	  37.5040000000
F	  12.4578000000	  31.6918000000	  39.0046000000
F	  13.2170000000	  29.6439000000	  39.3411000000
S	  16.8053000000	  32.0119000000	  39.2697000000
O	  16.9782000000	  32.2970000000	  40.6450000000
O	  16.9867000000	  33.1813000000	  38.4491000000
C	  18.1185000000	  30.9066000000	  38.9843000000
F	  19.2842000000	  31.4710000000	  39.2583000000
F	  18.0775000000	  29.8367000000	  39.7832000000
F	  18.1906000000	  30.3802000000	  37.7418000000
N	  16.0772000000	  36.7059000000	  40.4423000000
S	  15.2656000000	  35.4216000000	  40.7045000000
O	  14.9135000000	  34.6059000000	  39.5591000000
O	  15.7248000000	  34.7540000000	  41.8990000000
C	  13.6634000000	  36.0792000000	  41.1106000000
F	  12.8524000000	  35.1703000000	  41.6691000000
F	  13.0154000000	  36.5170000000	  39.9984000000
F	  13.7465000000	  37.1060000000	  41.9068000000
S	  16.6834000000	  37.1799000000	  39.0868000000
O	  16.7624000000	  38.6071000000	  38.8711000000
O	  16.4036000000	  36.3091000000	  37.9092000000
C	  18.4498000000	  36.8154000000	  39.4505000000
F	  19.1460000000	  37.0433000000	  38.4045000000
F	  19.0166000000	  37.5268000000	  40.4214000000
F	  18.6433000000	  35.5324000000	  39.7938000000
