61

Li	  14.2717000000	  43.5251000000	  31.2929000000
O	  17.6509000000	  46.1009000000	  32.1037000000
O	  15.9645000000	  44.7171000000	  31.5324000000
C	  16.9099000000	  46.8809000000	  31.1875000000
C	  15.5890000000	  46.0089000000	  30.9445000000
C	  16.9234000000	  45.0149000000	  32.4863000000
H	  16.7687000000	  47.8954000000	  31.5237000000
H	  17.3451000000	  47.0777000000	  30.1690000000
H	  14.7755000000	  46.3961000000	  31.5441000000
H	  15.1896000000	  45.9494000000	  29.9609000000
H	  17.5520000000	  44.1073000000	  32.6729000000
H	  16.4430000000	  45.2597000000	  33.4277000000
O	  15.0661000000	  42.4984000000	  29.7816000000
O	  16.6710000000	  41.0409000000	  29.1354000000
C	  14.7158000000	  42.1965000000	  28.4088000000
C	  15.8128000000	  41.1456000000	  28.0260000000
C	  16.4672000000	  42.2774000000	  29.7895000000
H	  13.7196000000	  41.8191000000	  28.5562000000
H	  14.8368000000	  43.1365000000	  27.8944000000
H	  15.3349000000	  40.1838000000	  27.9926000000
H	  16.4842000000	  41.3410000000	  27.2162000000
H	  17.0033000000	  43.1314000000	  29.3882000000
H	  16.8252000000	  42.1625000000	  30.8491000000
N	  14.0166000000	  45.1973000000	  35.9608000000
S	  14.7842000000	  44.6717000000	  37.2566000000
O	  14.7626000000	  43.2310000000	  37.3572000000
O	  15.9988000000	  45.4572000000	  37.5439000000
C	  13.5985000000	  45.1282000000	  38.6032000000
F	  12.4827000000	  44.3603000000	  38.6073000000
F	  13.1607000000	  46.3404000000	  38.7159000000
F	  14.1418000000	  44.9298000000	  39.8001000000
S	  13.3135000000	  44.3671000000	  34.8018000000
O	  12.6311000000	  43.1339000000	  35.1679000000
O	  13.9642000000	  44.5237000000	  33.5430000000
C	  11.8956000000	  45.5077000000	  34.6350000000
F	  11.0585000000	  45.3019000000	  35.5699000000
F	  12.2820000000	  46.7351000000	  34.5580000000
F	  11.1179000000	  45.2588000000	  33.5907000000
N	  14.9765000000	  40.0206000000	  34.1655000000
S	  16.2407000000	  40.9143000000	  34.4707000000
O	  16.7113000000	  41.6918000000	  33.3881000000
O	  16.2058000000	  41.4952000000	  35.7955000000
C	  17.5290000000	  39.6738000000	  34.5949000000
F	  17.1821000000	  38.6115000000	  35.3915000000
F	  18.6521000000	  40.0978000000	  35.1291000000
F	  17.9272000000	  39.1007000000	  33.4269000000
S	  13.7199000000	  40.4540000000	  33.2311000000
O	  13.9073000000	  41.7083000000	  32.5239000000
O	  12.3865000000	  40.2423000000	  33.8102000000
C	  13.7953000000	  39.2320000000	  31.8506000000
F	  14.9156000000	  39.3144000000	  31.1671000000
F	  13.5893000000	  37.9678000000	  32.1762000000
F	  12.7751000000	  39.4781000000	  31.0673000000
S	  12.3781000000	  44.2476000000	  30.9298000000
S	  11.1184000000	  45.6939000000	  30.0551000000
S	  10.9889000000	  47.5956000000	  31.0835000000
S	  15.1036000000	  50.6592000000	  29.7441000000
S	  16.1866000000	  49.4063000000	  28.3999000000
S	  16.0411000000	  50.5539000000	  26.5945000000
S	  13.8922000000	  49.5302000000	  30.9684000000
S	  11.9048000000	  49.1692000000	  30.2468000000
