53

Li	  48.2515000000	  54.8904000000	  24.7025000000
O	  48.1756000000	  56.3288000000	  23.5079000000
O	  46.9374000000	  58.1692000000	  23.2920000000
C	  49.0068000000	  57.2918000000	  22.8301000000
C	  48.2867000000	  58.5727000000	  23.2708000000
C	  46.8136000000	  56.8295000000	  23.4298000000
H	  50.0019000000	  57.0730000000	  22.9421000000
H	  48.8116000000	  57.2688000000	  21.7565000000
H	  48.6792000000	  58.8478000000	  24.2186000000
H	  48.5393000000	  59.3411251410	  22.5496000000
H	  46.3254000000	  56.5272000000	  22.4577000000
H	  46.2489000000	  56.7713000000	  24.3043000000
O	  47.1444000000	  57.3718000000	  27.4321000000
O	  48.2061000000	  55.8362000000	  26.1867000000
C	  48.3550000000	  57.9241000000	  27.0788000000
C	  49.1711000000	  56.7013000000	  26.7345000000
C	  47.1177000000	  56.0776000000	  26.9108000000
H	  48.2040000000	  58.6141000000	  26.2462000000
H	  48.8495000000	  58.4450000000	  27.9085000000
H	  49.9091000000	  57.1378000000	  26.0099000000
H	  49.7069000000	  56.3131000000	  27.5804000000
H	  47.3117000000	  55.2835000000	  27.6744000000
H	  46.1419000000	  55.8702000000	  26.4624000000
N	  45.0544000000	  53.0306000000	  24.9730000000
S	  45.8116000000	  53.1448000000	  23.6150000000
O	  46.8112000000	  54.1452000000	  23.5902000000
O	  45.9650000000	  51.9314000000	  22.8606000000
C	  44.5603000000	  54.0792000000	  22.7082000000
F	  45.0820000000	  54.6370000000	  21.6099000000
F	  44.0340000000	  55.0713000000	  23.4069000000
F	  43.5417000000	  53.3098000000	  22.3104000000
S	  44.7308000000	  51.7363000000	  25.8641000000
O	  45.7902000000	  50.7397000000	  25.8258000000
O	  43.3397000000	  51.2476000000	  25.8582000000
C	  44.9226000000	  52.4037000000	  27.5664000000
F	  46.1742000000	  52.8514000000	  27.7867000000
F	  44.1080000000	  53.4066000000	  27.7667000000
F	  44.6908000000	  51.5690000000	  28.5437000000
N	  49.4430000000	  51.3410000000	  24.1952000000
S	  49.1900000000	  51.6851000000	  25.6921000000
O	  48.5044000000	  52.9505000000	  25.9015000000
O	  48.9367000000	  50.4979000000	  26.4457000000
C	  50.9680000000	  51.8818000000	  26.2317000000
F	  51.5360000000	  52.9852000000	  25.7207000000
F	  51.7636000000	  50.9080000000	  26.0012000000
F	  51.0335000000	  52.0997000000	  27.5758000000
S	  49.4309000000	  52.2429000000	  22.9261000000
O	  49.5081000000	  53.6764000000	  23.2678000000
O	  48.6165000000	  51.7978000000	  21.8230000000
C	  51.0682000000	  51.9746000000	  22.1939000000
F	  51.3194000000	  50.7002000000	  21.8206000000
F	  51.2112000000	  52.6500000000	  21.0637000000
F	  52.0567000000	  52.2483000000	  22.9904000000
