43

Li	  57.1961000000	  20.0905000000	  11.8131000000
O	  56.9148000000	  17.2164000000	  14.7205000000
O	  56.5883000000	  18.7582000000	  13.0871000000
C	  56.6761000000	  16.4501000000	  13.5106000000
C	  56.2460000000	  17.5336000000	  12.5191000000
C	  56.4424000000	  18.4735000000	  14.4500000000
H	  57.6603000000	  15.9898000000	  13.1849000000
H	  56.0255000000	  15.6163000000	  13.6576000000
H	  56.6473000000	  17.3247000000	  11.5429000000
H	  55.1350000000	  17.4659000000	  12.3980000000
H	  55.4556000000	  18.6783000000	  14.8588000000
H	  57.0602000000	  19.2462000000	  14.9491000000
N	  56.6254000000	  19.4963000000	   7.3519200000
S	  56.0010000000	  20.9378000000	   7.3432100000
O	  54.6663000000	  20.9457000000	   6.8411000000
O	  56.4208000000	  21.7844000000	   8.4015800000
C	  56.9259000000	  21.6405000000	   5.9252600000
F	  58.1636000000	  21.4304000000	   6.0475600000
F	  56.7593000000	  22.9355000000	   5.7823700000
F	  56.5976000000	  20.9998000000	   4.8407900000
S	  56.9969000000	  18.7232000000	   8.7091500000
O	  56.7300000000	  19.4965000000	   9.8983600000
O	  58.2120000000	  17.9382000000	   8.6153100000
C	  55.6639000000	  17.4063000000	   8.5929800000
F	  54.4429000000	  17.9126000000	   8.6470900000
F	  55.7597000000	  16.7362000000	   7.4013700000
F	  55.7617000000	  16.5235000000	   9.5910300000
S	  61.2629654918	  17.5696000000	   9.7732800000
S	  62.5171654918	  17.0497000000	   8.1317600000
S	  63.9525954918	  18.6467000000	   7.9143400000
S	  60.3910754918	  21.7928000000	   8.2792200000
S	  59.7877954918	  22.2050000000	  10.3358000000
S	  59.2753554918	  20.3611000000	  11.4347000000
S	  62.4736954918	  21.8848000000	   7.9771300000
S	  63.2834854918	  20.2423000000	   6.6811400000
S	  49.0627000000	  25.7033000000	  11.0265000000
S	  50.4191000000	  26.1417000000	  12.6772000000
S	  52.0066000000	  24.6842000000	  12.8546000000
S	  53.1980000000	  20.1477000000	  12.5277000000
S	  54.3904000000	  21.0095000000	  11.0431000000
S	  56.1535000000	  21.9452000000	  11.9653000000
S	  51.4325000000	  21.1879000000	  12.5753000000
S	  51.4422000000	  22.8600000000	  13.8300000000
