35

Li	  19.6943000000	  24.8924000000	  51.9393000000
O	  21.1008000000	  25.8161000000	  51.7163000000
O	  23.3064000000	  25.8012000000	  51.9143000000
C	  21.5607000000	  27.1950000000	  51.6390000000
C	  22.9564000000	  26.9634000000	  51.1572000000
C	  22.2671000000	  24.9800000000	  51.7059000000
H	  21.0307000000	  27.8614000000	  50.9200000000
H	  21.6501000000	  27.7164000000	  52.5981000000
H	  23.0103000000	  26.7821000000	  50.0672000000
H	  23.5817000000	  27.8202000000	  51.4713000000
H	  22.1926000000	  24.3145000000	  52.5716000000
H	  22.5363000000	  24.4016000000	  50.7955000000
N	  15.9899000000	  26.2903000000	  53.2780000000
S	  15.9525000000	  25.4986000000	  54.5897000000
O	  16.5885000000	  24.1986000000	  54.6015000000
O	  16.2038000000	  26.4175000000	  55.6685000000
C	  14.1424000000	  25.0573000000	  54.6435000000
F	  13.3440000000	  26.0146000000	  54.1606000000
F	  13.7956000000	  24.8550000000	  55.8874000000
F	  13.9369000000	  23.8995000000	  54.0307000000
S	  17.1570000000	  26.5697000000	  52.2418000000
O	  17.9478000000	  25.4058000000	  51.9420000000
O	  17.8922000000	  27.7752000000	  52.5365000000
C	  16.2842000000	  26.9138000000	  50.7541000000
F	  15.3812000000	  27.8931000000	  51.0264000000
F	  17.1567000000	  27.3540000000	  49.8833000000
F	  15.6968000000	  25.9580000000	  50.0943000000
S	  19.3708000000	  22.7871000000	  52.4413000000
S	  20.2589000000	  22.4478000000	  50.4461000000
S	  19.1887000000	  23.5271000000	  49.0913000000
S	  19.5927000000	  27.2523000000	  45.5405000000
S	  18.2809000000	  28.5732000000	  44.5218000000
S	  17.2218000000	  27.7011000000	  42.8322000000
S	  18.9141000000	  26.6933000000	  47.4862000000
S	  20.1919000000	  25.3915000000	  48.6211000000
