28

Li	  38.9459000000	  24.6954000000	  29.8021000000
O	  39.9285000000	  25.4158000000	  28.4571000000
O	  41.4149000000	  25.9044000000	  26.9708000000
C	  39.1537000000	  26.2836000000	  27.6224000000
C	  40.2566000000	  26.7241000000	  26.7066000000
C	  40.9119000000	  24.8169000000	  27.6740000000
H	  38.2982000000	  25.9495000000	  27.0839000000
H	  38.8143000000	  27.0928000000	  28.2572000000
H	  40.0091000000	  26.3754000000	  25.7402000000
H	  40.4997000000	  27.7564000000	  26.7623000000
H	  41.6003000000	  24.3175000000	  28.3323000000
H	  40.5572000000	  24.0165000000	  27.0654000000
S	  41.7100000000	  22.4859000000	  38.2075000000
S	  40.9867000000	  20.6619000000	  37.5738000000
S	  42.1384000000	  19.7066000000	  36.0975000000
S	  42.9223000000	  21.2667000000	  31.8076000000
S	  41.6746000000	  21.9630000000	  30.2659000000
S	  40.1689000000	  23.1782000000	  30.9712000000
S	  42.2905000000	  19.3819000000	  32.5403000000
S	  41.1295000000	  19.8382000000	  34.1995000000
S	  37.5898000000	  23.3956000000	  28.6522000000
S	  36.6500000000	  24.0231000000	  30.5934000000
S	  37.0217000000	  26.1024000000	  30.9275000000
S	  41.6433000000	  26.7797000000	  33.3083000000
S	  42.7175000000	  24.9309000000	  33.2271000000
S	  41.7227000000	  23.5568000000	  34.3849000000
S	  40.2486000000	  26.9073000000	  31.6983000000
S	  38.3574000000	  26.4824000000	  32.4711000000
