39

Li	  10.2843000000	   4.0660700000	  26.3998000000
O	   6.3918900000	   4.8176900000	  25.3617000000
O	   8.3904600000	   4.2387400000	  26.1227000000
C	   6.6568100000	   3.8021400000	  24.4691000000
C	   8.1354500000	   3.6520300000	  24.8477000000
C	   7.1256800000	   4.6357000000	  26.5228000000
H	   6.0051500000	   2.9349600000	  24.6106000000
H	   6.5413900000	   4.1844600000	  23.4150000000
H	   8.6068800000	   2.6554400000	  24.7470000000
H	   8.6925300000	   4.2452400000	  24.1375000000
H	   7.1960100000	   5.5243000000	  27.1784000000
H	   6.7532800000	   3.8491100000	  27.1580000000
O	  10.1902000000	   8.2449600000	  27.5817000000
O	  10.9267000000	   6.2302500000	  26.9535000000
C	  11.2488000000	   7.9715500000	  28.4915000000
C	  11.7875000000	   6.6130900000	  28.0365000000
C	   9.7601000000	   6.9415100000	  27.1530000000
H	  12.0297000000	   8.7354200000	  28.3990000000
H	  10.8807000000	   7.8562700000	  29.4904000000
H	  12.8555000000	   6.6297900000	  27.7328000000
H	  11.6808000000	   5.8859500000	  28.8846000000
H	   9.1190900000	   6.5763200000	  27.9582000000
H	   9.1585500000	   6.8901500000	  26.2457000000
S	   6.7284000000	  -7.9632051410	  27.2350000000
S	   6.1674500000	  -5.9015051410	  27.1626000000
S	   7.6849100000	  -4.7646051410	  26.1965000000
S	   9.2243300000	   0.1609948590	  26.8906000000
S	   9.2374900000	   1.3894100000	  28.6283000000
S	  10.1869000000	   3.2984900000	  28.3534000000
S	   7.7498200000	  -1.4384051410	  27.1035000000
S	   8.6389300000	  -3.3365051410	  27.3307000000
S	   7.5704300000	  12.0658000000	  23.0907000000
S	   8.5294900000	  11.1239000000	  21.5437000000
S	   8.7036400000	   9.0661600000	  21.8193000000
S	  11.1609000000	   5.2185700000	  22.2110000000
S	  11.4521000000	   5.2431100000	  24.3277000000
S	  11.7221000000	   3.3142200000	  25.3127000000
S	  11.6703000000	   7.1302300000	  21.4047000000
S	   9.9535500000	   7.9722000000	  20.4768000000
