46

Li	  13.8078000000	  21.9118000000	  39.3156000000
N	  16.0911000000	  19.1936000000	  40.4161000000
S	  16.6342000000	  20.6915000000	  40.6335000000
O	  15.6746000000	  21.7140000000	  40.2483000000
O	  17.4266000000	  20.8693000000	  41.8331000000
C	  17.8553000000	  20.8167000000	  39.2201000000
F	  18.5847000000	  19.7434000000	  39.0572000000
F	  18.6450000000	  21.8660000000	  39.2067000000
F	  17.2759000000	  20.9078000000	  38.0187000000
S	  16.1393000000	  17.9972000000	  41.4369000000
O	  14.9103000000	  17.2020000000	  41.4743000000
O	  16.8515000000	  18.1520000000	  42.6409000000
C	  17.2979000000	  16.8801000000	  40.4919000000
F	  17.3816000000	  15.6702000000	  41.0230000000
F	  16.9293000000	  16.6517000000	  39.2602000000
F	  18.5363000000	  17.3346000000	  40.5158000000
N	  12.8947000000	  22.2853000000	  35.5850000000
S	  14.3611000000	  22.0798000000	  36.1594000000
O	  15.3665000000	  22.9652000000	  35.5768000000
O	  14.3784000000	  21.8480000000	  37.5895000000
C	  14.8229000000	  20.3511000000	  35.4908000000
F	  15.9680000000	  19.7781000000	  35.8805000000
F	  14.9694000000	  20.4577000000	  34.1629000000
F	  13.8106000000	  19.5198000000	  35.7333000000
S	  11.5892000000	  22.4681000000	  36.4353000000
O	  10.7826000000	  23.5460000000	  35.8863000000
O	  11.7682000000	  22.3476000000	  37.8744000000
C	  10.6996000000	  20.9257000000	  35.9469000000
F	   9.3618600000	  21.0425000000	  36.1181000000
F	  10.7656000000	  20.6985000000	  34.6293000000
F	  11.0876000000	  19.8284000000	  36.5102000000
N	  11.3027000000	  21.5018000000	  41.9588000000
S	  11.5812000000	  22.9729000000	  41.5725000000
O	  12.7770000000	  23.1128000000	  40.7487000000
O	  10.4273000000	  23.8390000000	  41.2784000000
C	  12.0925000000	  23.5618000000	  43.2456000000
F	  13.2347000000	  23.1017000000	  43.6742000000
F	  11.2316000000	  23.1727000000	  44.1935000000
F	  12.1787000000	  24.8798000000	  43.2779000000
S	  11.9579000000	  20.2631000000	  41.2894000000
O	  12.4501000000	  19.3402000000	  42.2446000000
O	  12.7159000000	  20.4824000000	  40.0765000000
C	  10.4665000000	  19.4137000000	  40.7074000000
F	   9.6991200000	  20.0735000000	  39.8202000000
F	  10.8619000000	  18.3546000000	  40.0627000000
F	   9.6366600000	  19.0320000000	  41.6563000000
