46

Li	  12.7503000000	  39.2627000000	  16.8893000000
O	  12.1583000000	  38.3249000000	  15.4528000000
O	  12.0460000000	  37.4988000000	  13.3070000000
C	  11.5079000000	  37.1125000000	  15.5143000000
C	  11.8932000000	  36.4487000000	  14.2456000000
C	  12.1088000000	  38.6209000000	  14.0504000000
H	  11.8226000000	  36.5665000000	  16.4205000000
H	  10.4417000000	  37.3782000000	  15.5442000000
H	  12.8821000000	  36.1045000000	  14.4370000000
H	  11.2765000000	  35.6456000000	  13.8269000000
H	  11.3380000000	  39.3820000000	  13.7345000000
H	  13.0399000000	  39.0455000000	  13.6726000000
O	  15.3194000000	  36.6810000000	  18.8118000000
O	  13.7331000000	  38.0777000000	  17.9844000000
C	  15.4826000000	  37.8351000000	  19.6361000000
C	  14.1845000000	  38.6151000000	  19.2677000000
C	  14.0856000000	  36.7657000000	  18.1650000000
H	  15.5294000000	  37.5960000000	  20.7174000000
H	  16.3637000000	  38.3808000000	  19.3837000000
H	  13.3779000000	  38.2091000000	  19.8986000000
H	  14.1162000000	  39.7281000000	  19.3550000000
H	  14.0633000000	  36.1854000000	  17.1751000000
H	  13.1704000000	  36.4097000000	  18.6575000000
N	  14.6765000000	  42.5987000000	  14.4505000000
S	  14.3601000000	  41.9452000000	  15.8345000000
O	  13.7338000000	  42.8808000000	  16.7629000000
O	  13.7709000000	  40.6385000000	  15.7302000000
C	  15.9975000000	  41.5326000000	  16.5971000000
F	  16.7510000000	  42.6067000000	  16.7549000000
F	  16.6800000000	  40.5977000000	  15.9232000000
F	  15.8172000000	  41.0803000000	  17.7915000000
S	  13.9065000000	  42.4935000000	  13.1195000000
O	  13.5921000000	  43.8279000000	  12.6126000000
O	  12.9870000000	  41.3999000000	  12.9975000000
C	  15.2791000000	  42.0022000000	  12.0853000000
F	  15.6906000000	  40.7535000000	  12.1658000000
F	  14.9350000000	  42.1815000000	  10.8239000000
F	  16.3855000000	  42.7001000000	  12.2537000000
S	  11.2121000000	  40.4949000000	  17.7801000000
S	  10.7404000000	  40.7095000000	  19.7287000000
S	  10.0631000000	  42.5514000000	  20.2155000000
S	   5.2215400000	  41.4244000000	  21.1921000000
S	   5.0392400000	  40.8023000000	  23.3351000000
S	   3.1032600000	  39.9656000000	  23.6247000000
S	   6.5050400000	  43.0029000000	  21.0784000000
S	   8.0673100000	  42.6794000000	  19.5609000000
