39

Li	  58.8590000000	  39.9976000000	  15.4037000000
O	  58.2119000000	  37.0373000000	  17.6785000000
O	  57.7186000000	  38.2155000000	  15.9291000000
C	  57.2423000000	  37.9593000000	  18.0549000000
C	  56.5939000000	  38.2395000000	  16.7585000000
C	  58.2763000000	  37.0237000000	  16.3010000000
H	  56.5999000000	  37.4030000000	  18.7513000000
H	  57.7099000000	  38.8382000000	  18.5190000000
H	  55.8982000000	  37.3634000000	  16.4417000000
H	  56.0811000000	  39.2135000000	  16.6143000000
H	  59.3122954918	  37.1221000000	  16.0735000000
H	  57.8352000000	  36.1797000000	  15.8517000000
O	  57.9821000000	  41.9925000000	  16.3857000000
O	  58.5979000000	  43.2216000000	  18.1500000000
C	  58.3457000000	  43.2326000000	  15.7542000000
C	  59.0397000000	  43.9407000000	  16.9967000000
C	  57.5708000000	  42.3875000000	  17.6325000000
H	  59.0729000000	  43.1304000000	  14.9353000000
H	  57.4739000000	  43.7045000000	  15.2864000000
H	  60.1161754918	  43.8305000000	  16.9462000000
H	  58.8403000000	  45.0315000000	  17.1896000000
H	  56.6343000000	  42.9404000000	  17.6149000000
H	  57.4108000000	  41.5743000000	  18.2789000000
S	  59.4398154918	  39.4211000000	  13.4943000000
S	  57.6207000000	  40.5297000000	  13.3462000000
S	  57.3426000000	  41.5001000000	  11.4850000000
S	  55.4818000000	  41.0196000000	   7.2972000000
S	  53.8284000000	  41.6401000000	   6.1480800000
S	  53.0771000000	  43.5505000000	   6.8651100000
S	  54.8898000000	  40.2275000000	   9.1987400000
S	  55.3518000000	  41.5022000000	  10.8317000000
S	  65.6866454918	  38.1350000000	  23.6972000000
S	  67.1164454918	  38.7169000000	  22.2311000000
S	  66.4826454918	  38.4076000000	  20.1713000000
S	  63.5301554918	  38.9986000000	  16.3548000000
S	  61.9310454918	  40.3204000000	  15.9379000000
S	  60.1488154918	  39.7308000000	  17.0039000000
S	  65.1701254918	  39.9177000000	  17.2042000000
S	  65.4656354918	  40.0560000000	  19.3414000000
