57

Li	   2.5739800000	   9.5263500000	  59.0046000000
O	  -0.2354754918	  10.5507000000	  56.4979000000
O	   0.9401230000	   9.2195600000	  57.8187000000
C	  -1.1203754918	   9.9077000000	  57.4018000000
C	  -0.3605754918	   8.7840000000	  58.0942000000
C	   0.9058100000	   9.7151700000	  56.5063000000
H	  -1.5187754918	  10.7007000000	  57.9905000000
H	  -1.9322754918	   9.5073900000	  56.6849000000
H	  -0.5926754918	   8.9452000000	  59.1701000000
H	  -0.5542754918	   7.8423600000	  57.6106000000
H	   0.7391245082	   8.9986700000	  55.7699000000
H	   1.7516400000	  10.3455000000	  56.2472000000
N	   3.8939900000	   6.2375300000	  57.6467000000
S	   3.0061300000	   6.0759900000	  58.9227000000
O	   3.4507000000	   5.0406500000	  59.8045728581
O	   2.5378000000	   7.2859200000	  59.5555228581
C	   1.4561600000	   5.3709100000	  58.1479000000
F	   0.8603440000	   6.1930500000	  57.3043000000
F	   0.5625245082	   4.9982900000	  59.0388000000
F	   1.7729700000	   4.2404700000	  57.4937000000
S	   4.3194100000	   7.5624300000	  56.9069000000
O	   5.7427900000	   7.6010700000	  56.6308000000
O	   3.6116700000	   8.7454000000	  57.3566000000
C	   3.7725000000	   7.2589800000	  55.2082000000
F	   2.4662500000	   7.1475000000	  55.1577000000
F	   4.0775800000	   8.2273600000	  54.3771000000
F	   4.2876600000	   6.2193700000	  54.6467000000
N	   2.2844000000	  11.6932000000	  62.3129128581
S	   1.1150900000	  11.2504000000	  61.3466328581
O	   0.3807245082	  12.3122000000	  60.7307228581
O	   1.5558600000	  10.1095000000	  60.5912828581
C	  -0.0229754918	  10.5131000000	  62.4767128581
F	  -1.1209754918	   9.9441000000	  61.9004528581
F	  -0.4846754918	  11.4657000000	  63.2834528581
F	   0.5320245082	   9.5735700000	  63.1871928581
S	   2.8883500000	  13.1821000000	  62.4550528581
O	   2.6738500000	  14.0403000000	  61.3333528581
O	   4.1815000000	  13.2033000000	  63.0686728581
C	   1.7874200000	  13.8285000000	  63.8421928581
F	   1.7164900000	  13.0326000000	  64.8214728581
F	   2.3384900000	  14.9541000000	  64.3390428581
F	   0.5690245082	  14.1476000000	  63.4778728581
N	   4.9851100000	  12.1838000000	  59.1558000000
S	   5.3121700000	  10.9742000000	  60.0388928581
O	   5.6972600000	  11.4446000000	  61.3509628581
O	   4.5601700000	   9.7971700000	  59.7850228581
C	   6.9316800000	  10.5763000000	  59.4313828581
F	   6.7962900000	   9.8192200000	  58.3653000000
F	   7.7054000000	   9.9565000000	  60.3675628581
F	   7.4927100000	  11.6589000000	  58.9637000000
S	   3.5807200000	  12.4440000000	  58.4675000000
O	   3.0149500000	  13.7715000000	  58.7632000000
O	   2.6568900000	  11.3194000000	  58.3933000000
C	   4.1345200000	  12.5483000000	  56.7633000000
F	   3.2357200000	  12.8441000000	  55.8516000000
F	   5.0934500000	  13.3950000000	  56.5812000000
F	   4.6888500000	  11.4012000000	  56.3619000000
