28

Li	  57.5029000000	  39.5930000000	  13.8524000000
O	  59.0792000000	  37.2065000000	  16.9775000000
O	  58.1489000000	  38.4413000000	  15.4134000000
C	  58.2254000000	  38.0845000000	  17.6002000000
C	  57.2478000000	  38.3530000000	  16.5439000000
C	  58.9926000000	  37.4110000000	  15.6677000000
H	  57.7463000000	  37.6994000000	  18.4930000000
H	  58.8248000000	  38.9962000000	  17.8135000000
H	  56.6076000000	  37.5286000000	  16.4120000000
H	  56.8602000000	  39.3728000000	  16.7701000000
H	  59.9342154918	  37.7436000000	  15.1526000000
H	  58.6300000000	  36.4942000000	  15.1273000000
S	  55.4905000000	  39.7745000000	  13.4475000000
S	  55.5744000000	  40.4717000000	  11.3848000000
S	  54.0071000000	  41.8887000000	  11.0151000000
S	  50.1969000000	  42.6355000000	   7.9672300000
S	  49.4945000000	  42.4347000000	   5.9702500000
S	  47.6201000000	  41.3595000000	   5.9804800000
S	  51.7901000000	  41.2047000000	   8.4318800000
S	  52.1781000000	  40.9403000000	  10.4733000000
S	  63.1268154918	  41.2419000000	  23.3084000000
S	  61.9483654918	  40.5988000000	  21.6971000000
S	  62.1892954918	  41.6798000000	  19.9029000000
S	  59.2689834918	  43.0871000000	  16.4361000000
S	  57.8647000000	  42.0207000000	  15.1825000000
S	  59.0254000000	  40.9257000000	  13.7714000000
S	  59.0972000000	  42.3448000000	  18.4462000000
S	  60.6620054918	  43.0328000000	  19.7166000000
