65

Li	  58.9860000000	  41.0057000000	  37.3888000000
O	  59.1765734918	  37.0203000000	  38.8179000000
O	  59.2896954918	  39.1279000000	  38.0380000000
C	  58.3404000000	  37.7672000000	  39.6981000000
C	  58.0534000000	  38.8853000000	  38.7411000000
C	  60.0353854918	  38.0107000000	  38.2582000000
H	  57.4574000000	  37.1579000000	  39.9966000000
H	  58.9060000000	  38.1149000000	  40.5803000000
H	  57.2574000000	  38.5005000000	  38.0423000000
H	  57.6872000000	  39.7577000000	  39.2026000000
H	  60.7758954918	  38.2482000000	  38.9769000000
H	  60.4924954918	  37.6978000000	  37.3382000000
N	  55.8689000000	  38.7567000000	  34.9551000000
S	  57.2297000000	  39.4013000000	  34.5892000000
O	  57.2533000000	  40.1862000000	  33.3450000000
O	  57.7659000000	  39.9920000000	  35.8027000000
C	  58.3678000000	  38.0414000000	  34.2807000000
F	  59.6039954918	  38.4783000000	  34.2974000000
F	  58.2439000000	  37.4215000000	  33.1364000000
F	  58.1976000000	  37.1167000000	  35.2438000000
S	  54.7223000000	  38.2460000000	  34.0260000000
O	  54.1885000000	  37.0361000000	  34.5779000000
O	  54.9415000000	  38.2806000000	  32.5690000000
C	  53.3953000000	  39.5178000000	  34.3087000000
F	  52.1633000000	  39.2019000000	  33.9489000000
F	  53.2948000000	  39.6190000000	  35.6115000000
F	  53.6915000000	  40.7056000000	  33.7439000000
N	  58.3428000000	  44.9286000000	  35.4953000000
S	  57.8928000000	  43.4927000000	  35.0814000000
O	  57.6673000000	  43.3378000000	  33.6566000000
O	  58.5795000000	  42.4732000000	  35.7798000000
C	  56.2872000000	  43.4793000000	  35.8503000000
F	  56.3672000000	  43.6134000000	  37.1641000000
F	  55.5850000000	  42.3357000000	  35.5524000000
F	  55.5980000000	  44.5269000000	  35.3737000000
S	  59.5706854918	  45.2350000000	  36.4161000000
O	  60.6255054918	  44.2172000000	  36.5554000000
O	  59.0825000000	  45.8854000000	  37.5957000000
C	  60.3175654918	  46.5695000000	  35.4837000000
F	  60.4662954918	  46.4912000000	  34.1809000000
F	  59.6666354918	  47.7212000000	  35.7196000000
F	  61.5771254918	  46.8187000000	  35.8925000000
N	  60.2370154918	  43.7847000000	  39.8945000000
S	  58.7633000000	  43.2921000000	  39.6063000000
O	  57.6620000000	  44.2612000000	  39.8113000000
O	  58.7231000000	  42.4526000000	  38.4652000000
C	  58.4741000000	  42.1197000000	  41.0445000000
F	  58.9792000000	  40.9258000000	  40.7858000000
F	  57.1908000000	  41.8976000000	  41.1944000000
F	  58.9636000000	  42.5463000000	  42.2337000000
S	  60.7699554918	  45.2406000000	  40.1350000000
O	  59.7272754918	  46.1472000000	  40.4135000000
O	  61.7157954918	  45.5136000000	  39.0728000000
C	  61.7852554918	  45.0391000000	  41.6677000000
F	  62.2537454918	  46.1587000000	  42.1292000000
F	  61.0156054918	  44.6543000000	  42.7095000000
F	  62.8314454918	  44.1927000000	  41.6258000000
S	  61.3501354918	  41.2592000000	  37.0150000000
S	  63.2304854918	  40.6543000000	  36.4292000000
S	  63.1641654918	  38.9080000000	  35.1231000000
S	  66.9505954918	  39.6998000000	  31.5130000000
S	  68.8441754918	  40.7414000000	  31.8005000000
S	  68.5676754918	  42.7768000000	  32.4299000000
S	  65.9925054918	  38.9430000000	  33.2388000000
S	  63.9647354918	  39.4735000000	  33.3562000000
