49

Li	  10.7339000000	  52.9227000000	  43.5706000000
O	   9.2030600000	  53.9202000000	  43.7897000000
O	   7.4958500000	  55.2347000000	  44.5348000000
C	   8.7107000000	  54.7385000000	  42.6667000000
C	   7.3568700000	  55.1591000000	  43.0946000000
C	   8.2958900000	  54.0937000000	  44.7846000000
H	   9.3378600000	  55.6608000000	  42.5780000000
H	   8.7466800000	  54.1331000000	  41.7594000000
H	   7.0170900000	  56.0847000000	  42.5466000000
H	   6.5396700000	  54.4382000000	  42.9827000000
H	   7.4907300000	  53.3044000000	  44.6910000000
H	   8.7069300000	  54.3347000000	  45.8220000000
O	  13.3155000000	  56.1057000000	  44.0991000000
O	  11.8284000000	  54.4956000000	  44.6146000000
C	  12.1420000000	  56.7609000000	  44.5512000000
C	  11.4992000000	  55.7308000000	  45.3738000000
C	  13.1237000000	  54.7431000000	  44.2198000000
H	  12.2961000000	  57.7028000000	  45.0197000000
H	  11.5552000000	  56.8655000000	  43.6835000000
H	  12.0575000000	  55.6663000000	  46.3333000000
H	  10.4301000000	  55.9893000000	  45.4823000000
H	  13.3859000000	  54.1512000000	  43.3163000000
H	  13.7514000000	  54.3946000000	  45.0585000000
O	  10.0945000000	  51.0351000000	  44.0414000000
O	  10.7041000000	  49.4839000000	  45.4487000000
C	   8.8989800000	  50.4352000000	  44.3196000000
C	   9.3184000000	  49.4661000000	  45.4730000000
C	  11.0564000000	  50.0051000000	  44.2211000000
H	   7.9986400000	  51.0465000000	  44.5292000000
H	   8.6601600000	  49.6619000000	  43.5681000000
H	   8.9658200000	  49.7346000000	  46.4334000000
H	   8.9186600000	  48.5443000000	  45.2828000000
H	  11.0578000000	  49.2394000000	  43.4343000000
H	  12.0432000000	  50.5625000000	  44.2938000000
N	  12.1546000000	  52.5285000000	  39.8543000000
S	  11.9702000000	  51.6938000000	  41.1568000000
O	  12.0691000000	  52.4110000000	  42.3539000000
O	  11.0556000000	  50.6136000000	  41.0227000000
C	  13.5213000000	  50.7516000000	  41.1401000000
F	  13.6259000000	  49.9833000000	  40.0567000000
F	  13.6135000000	  49.9887000000	  42.2195000000
F	  14.6407000000	  51.5536000000	  41.1777000000
S	  11.9023000000	  54.0632000000	  39.6736000000
O	  12.8819000000	  54.6945000000	  38.8395000000
O	  11.4895000000	  54.7023000000	  40.9245000000
C	  10.3809000000	  54.1489000000	  38.7463000000
F	   9.9890200000	  55.4284000000	  38.5905000000
F	  10.6255000000	  53.6410000000	  37.5440000000
F	   9.4198000000	  53.5652000000	  39.3984000000
