28

Li	  50.1776000000	  43.5340000000	  10.0645000000
O	  50.4722000000	  41.8315000000	   9.6275700000
O	  50.8559000000	  39.6502000000	  10.1008000000
C	  49.6097000000	  41.0581000000	   8.8268600000
C	  49.6003000000	  39.7365000000	   9.4785600000
C	  51.4390000000	  40.9109000000	   9.9405200000
H	  48.6777000000	  41.4817000000	   8.9060400000
H	  49.9734000000	  40.9936000000	   7.8838400000
H	  48.8225000000	  39.6371000000	  10.2232000000
H	  49.4330000000	  38.8956000000	   8.8434200000
H	  52.2911000000	  40.8604000000	   9.1887600000
H	  51.9317000000	  41.2165000000	  10.8843000000
S	  57.2308000000	  37.6483000000	  11.6976000000
S	  56.6435000000	  39.3269000000	  12.8310000000
S	  56.4634000000	  41.1255000000	  11.7401000000
S	  52.3185000000	  44.3388000000	  10.8027000000
S	  51.6237000000	  45.2955000000	   9.0742200000
S	  49.5538000000	  45.1186000000	   8.6408600000
S	  54.1653000000	  43.3245000000	  10.2705000000
S	  54.5059000000	  41.6269000000	  11.4303000000
S	  50.2441000000	  36.8456000000	  18.2578000000
S	  48.5181000000	  38.0491000000	  18.2608000000
S	  48.4341000000	  39.3895000000	  16.6323000000
S	  47.0416000000	  40.4347000000	  12.4092000000
S	  48.9565000000	  41.3687000000	  12.5910000000
S	  48.8674000000	  43.3776000000	  11.9194000000
S	  47.0070000000	  38.6446000000	  13.5266000000
S	  46.7126000000	  39.0649000000	  15.4622000000
