76

Li	  16.5081000000	  40.0177000000	  39.5055000000
N	  14.1755000000	  40.0945000000	  43.1941000000
S	  12.9683000000	  40.9618000000	  43.6125000000
O	  13.2839000000	  42.3087000000	  44.0675000000
O	  11.8993000000	  40.7579000000	  42.6747000000
C	  12.4362000000	  40.1071000000	  45.1558000000
F	  11.6339000000	  40.9488000000	  45.8187000000
F	  13.4811000000	  39.7614000000	  45.9328000000
F	  11.6851000000	  39.0095000000	  45.0165000000
S	  15.5320000000	  40.6149000000	  42.6353000000
O	  15.8697000000	  41.9453000000	  43.0771000000
O	  15.8515000000	  40.3535000000	  41.2649000000
C	  16.8086000000	  39.5132000000	  43.5289000000
F	  16.6487000000	  39.4931000000	  44.8604000000
F	  16.7664000000	  38.2158000000	  43.2057000000
F	  18.0244000000	  39.9784000000	  43.3107000000
N	  19.4162000000	  42.2656000000	  38.7854000000
S	  19.5664000000	  41.3194000000	  40.0747000000
O	  20.2263000000	  41.8766000000	  41.1413000000
O	  18.4065000000	  40.4657000000	  40.2361000000
C	  20.6505000000	  39.9988000000	  39.4875000000
F	  21.7946000000	  40.4841000000	  39.1385000000
F	  20.0853000000	  39.3581000000	  38.4974000000
F	  20.8964000000	  39.1409000000	  40.4602000000
S	  19.9260000000	  43.7462000000	  38.6008000000
O	  20.4761000000	  44.3948000000	  39.7629000000
O	  18.9609000000	  44.5498000000	  37.8964000000
C	  21.4359000000	  43.5603000000	  37.4364000000
F	  22.0336000000	  44.7336000000	  37.0972000000
F	  22.3971000000	  42.7697000000	  37.9402000000
F	  21.1467000000	  43.0233000000	  36.2657000000
N	  13.3335000000	  42.8526000000	  37.6797000000
S	  14.7792000000	  42.8076000000	  38.2799000000
O	  15.2214000000	  41.4480000000	  38.5869000000
O	  15.6287000000	  43.7628000000	  37.6584000000
C	  14.5930000000	  43.5628000000	  39.8922000000
F	  14.1565000000	  44.8051000000	  39.7431000000
F	  15.6998000000	  43.6376000000	  40.5658000000
F	  13.7257000000	  42.9055000000	  40.6881000000
S	  12.9625000000	  43.3526000000	  36.2338000000
O	  11.7422000000	  42.8497000000	  35.7310000000
O	  14.0488000000	  43.3420000000	  35.3090000000
C	  12.6214000000	  45.1553000000	  36.4800000000
F	  12.7298000000	  45.9441000000	  35.4061000000
F	  11.4297000000	  45.2932000000	  37.0431000000
F	  13.4775000000	  45.5511000000	  37.3328000000
N	  15.3251000000	  35.8139000000	  40.3782000000
S	  14.2407000000	  34.7330000000	  40.5852000000
O	  13.6887000000	  34.2745000000	  39.3253000000
O	  14.5933000000	  33.7201000000	  41.5186000000
C	  12.9825000000	  35.7253000000	  41.4510000000
F	  12.5602000000	  36.6037000000	  40.5624000000
F	  13.3731000000	  36.4655000000	  42.4881000000
F	  11.9121000000	  35.0700000000	  41.8584000000
S	  15.8117000000	  36.5798000000	  39.0745000000
O	  15.5663000000	  37.9985000000	  39.2184000000
O	  15.4425000000	  35.8693000000	  37.8723000000
C	  17.6082000000	  36.4907000000	  39.1607000000
F	  18.2198000000	  37.0271000000	  38.0913000000
F	  18.1023000000	  37.2049000000	  40.1640000000
F	  17.9999000000	  35.2485000000	  39.3080000000
N	  16.0303000000	  39.4537000000	  35.6067000000
S	  17.1625000000	  40.2081000000	  36.4222000000
O	  17.0394000000	  41.6440000000	  36.1600000000
O	  17.2931000000	  39.6167000000	  37.7491000000
C	  18.7117000000	  39.8039000000	  35.5131000000
F	  19.7650000000	  40.3910000000	  36.1833000000
F	  18.7143000000	  40.2054000000	  34.2580000000
F	  18.8940000000	  38.4933000000	  35.5206000000
S	  14.8972000000	  40.0198000000	  34.7095000000
O	  15.3524000000	  41.1700000000	  33.9714000000
O	  13.6211000000	  39.9922000000	  35.4235000000
C	  14.7072000000	  38.7903000000	  33.4212000000
F	  14.3998000000	  37.6265000000	  33.9688000000
F	  13.7256000000	  39.1464000000	  32.5428000000
F	  15.7446000000	  38.5372000000	  32.6623000000
