60

Li	  47.9289000000	   7.9288400000	  50.3544000000
O	  48.5404000000	  11.4259000000	  48.6135000000
O	  48.6295000000	   9.4593700000	  49.8035000000
C	  48.9930000000	  11.7686000000	  49.9819000000
C	  49.1656000000	  10.4130000000	  50.7227000000
C	  48.8714000000	  10.1023000000	  48.5431000000
H	  49.8296000000	  12.4187000000	  50.1288000000
H	  48.1401000000	  12.2813000000	  50.4878000000
H	  50.2128000000	  10.2149000000	  50.9271000000
H	  48.6660000000	  10.4734000000	  51.6693000000
H	  48.2784000000	   9.5512300000	  47.8114000000
H	  49.9415000000	   9.8886100000	  48.3729000000
O	  47.3933000000	   4.7711600000	  49.4885000000
O	  47.7561000000	   6.8110000000	  48.7884000000
C	  48.6763000000	   4.7800500000	  48.8566000000
C	  48.7908000000	   6.1452700000	  48.1596000000
C	  46.7265000000	   5.8522000000	  48.8726000000
H	  49.4374000000	   4.6471800000	  49.6664000000
H	  48.8459000000	   3.9814400000	  48.1770000000
H	  49.6693000000	   6.6256900000	  48.5993000000
H	  48.7012000000	   6.2044000000	  47.1346000000
H	  46.2697000000	   5.5910100000	  47.9432000000
H	  45.9575000000	   6.1583100000	  49.4933000000
O	  49.1095000000	   7.2020800000	  51.7995000000
O	  49.5856000000	   6.2880000000	  53.8731000000
C	  50.4268000000	   6.6947300000	  51.6947000000
C	  50.4081000000	   5.6959500000	  52.8905000000
C	  48.8253000000	   7.2081200000	  53.1438000000
H	  50.7167000000	   6.1717500000	  50.8244000000
H	  51.1195000000	   7.5029800000	  51.9214000000
H	  49.8989000000	   4.7797500000	  52.5385000000
H	  51.4088000000	   5.4924400000	  53.3005000000
H	  49.0093000000	   8.1999800000	  53.5446000000
H	  47.7275000000	   6.9346100000	  53.3044000000
P	  44.9810000000	   8.8853600000	  51.6841000000
O	  44.4210000000	  10.2362000000	  51.0624000000
O	  43.7029000000	   7.9792200000	  51.3366000000
O	  44.8588000000	   9.2060800000	  53.2865000000
O	  46.2450000000	   8.2980200000	  51.1835000000
C	  45.2098000000	  11.2138000000	  50.4111000000
C	  43.2511000000	   7.8451000000	  49.9809000000
C	  45.6349000000	  10.2499000000	  53.8218000000
C	  45.5008000000	  10.7510000000	  49.0405000000
C	  42.1364000000	   8.8939200000	  49.6532000000
C	  45.3155000000	  10.1469000000	  55.2968000000
H	  44.6061000000	  12.1200000000	  50.2975000000
H	  46.0634000000	  11.2791000000	  50.9594000000
H	  44.1551000000	   7.9303500000	  49.3712000000
H	  42.8189000000	   6.8561000000	  49.9541000000
H	  46.6747000000	  10.0106000000	  53.4413000000
H	  45.3275000000	  11.1564000000	  53.3402000000
H	  44.5838000000	  10.6407000000	  48.4051000000
H	  46.0552000000	  11.6082000000	  48.6035000000
H	  46.2268000000	   9.9240500000	  48.9816000000
H	  42.5911000000	   9.8943700000	  49.8028000000
H	  42.0015000000	   9.0127700000	  48.6008000000
H	  41.1055000000	   8.7098000000	  50.0966000000
H	  45.3855000000	   9.0767100000	  55.5749000000
H	  46.0742000000	  10.6206000000	  55.9296000000
H	  44.3269000000	  10.5694000000	  55.5787000000
