72

Li	  22.4261000000	  28.9188000000	  44.1782000000
O	  21.3249000000	  28.8182000000	  47.9860000000
O	  22.2908000000	  29.1279000000	  46.0520000000
C	  22.5810000000	  28.0725000000	  48.0617000000
C	  23.3364000000	  28.5664000000	  46.8721000000
C	  21.0581000000	  28.9107000000	  46.6564000000
H	  23.1449000000	  28.2849000000	  48.9344000000
H	  22.3413000000	  27.0049000000	  48.1033000000
H	  24.0996000000	  29.3302000000	  46.9742000000
H	  23.8329000000	  27.6899000000	  46.3361000000
H	  20.5414000000	  28.0065000000	  46.2298000000
H	  20.4435000000	  29.7687000000	  46.4714000000
P	  25.4851000000	  28.3126000000	  43.1664000000
O	  26.5555000000	  29.5207000000	  43.3965000000
O	  26.4216000000	  27.0641000000	  43.5041000000
O	  25.3235000000	  28.2449000000	  41.5819000000
O	  24.2258000000	  28.3506000000	  43.9797000000
C	  26.1139000000	  30.8466000000	  42.9448000000
C	  26.4701000000	  26.6747000000	  44.8893000000
C	  24.6459000000	  27.1944000000	  40.8902000000
C	  25.7626000000	  31.7673000000	  44.1322000000
C	  25.9383000000	  25.1755000000	  45.0937000000
C	  25.2759000000	  25.7511000000	  41.0421000000
H	  26.9964000000	  31.2322000000	  42.4567000000
H	  25.3950000000	  30.9200000000	  42.1788000000
H	  27.5249000000	  26.6660000000	  45.1618000000
H	  25.9365000000	  27.3673000000	  45.5935000000
H	  23.5266000000	  27.2881000000	  41.1524000000
H	  24.5972000000	  27.3945000000	  39.8237000000
H	  25.0534000000	  31.3018000000	  44.7511000000
H	  26.6925000000	  32.0368000000	  44.6666000000
H	  25.2502000000	  32.6817000000	  43.7295000000
H	  24.8973000000	  24.9740000000	  44.5993000000
H	  26.5940000000	  24.5019000000	  44.5819000000
H	  25.9079000000	  25.0738000000	  46.1898000000
H	  26.2988000000	  25.9065000000	  41.1521000000
H	  24.8444000000	  25.2832000000	  41.9103000000
H	  25.2715000000	  25.1942000000	  40.1240000000
P	  21.1526000000	  31.7491000000	  43.1343000000
O	  21.5411000000	  33.2487000000	  42.9729000000
O	  20.5070000000	  31.3945000000	  41.7190000000
O	  19.8535000000	  31.9349000000	  44.0337000000
O	  22.0925000000	  30.7225000000	  43.6712000000
C	  21.9566000000	  33.9781000000	  44.0122000000
C	  21.2442000000	  31.2118000000	  40.5703000000
C	  18.9445000000	  30.8622000000	  44.1697000000
C	  20.8818000000	  34.8212000000	  44.7310000000
C	  21.7039000000	  29.7840000000	  40.5669000000
C	  18.0783000000	  31.1184000000	  45.4141000000
H	  22.5294000000	  33.3043000000	  44.7154000000
H	  22.7222000000	  34.7397000000	  43.6726000000
H	  20.6670000000	  31.3012000000	  39.6201000000
H	  22.0352000000	  31.9759000000	  40.4209000000
H	  18.3519000000	  30.7053000000	  43.2352000000
H	  19.4956000000	  29.9639000000	  44.4603000000
H	  21.2815000000	  35.7267000000	  45.1730000000
H	  20.0345000000	  35.1200000000	  44.0874000000
H	  20.5089000000	  34.3082000000	  45.7081000000
H	  22.4203000000	  29.6039000000	  39.7546000000
H	  22.2965000000	  29.5321000000	  41.4978000000
H	  20.8242000000	  29.1694000000	  40.4322000000
H	  17.8114000000	  30.1945000000	  45.8492000000
H	  18.6334000000	  31.7555000000	  46.0424000000
H	  17.1545000000	  31.5448000000	  44.9793000000
S	  19.9235000000	  23.9256000000	  35.0131000000
S	  22.0257000000	  23.8146000000	  35.2516000000
S	  22.8532000000	  25.3688000000	  36.4953000000
S	  20.9504000000	  24.9613000000	  41.3048000000
S	  21.8744000000	  25.8857000000	  42.9280000000
S	  20.8694000000	  27.6208000000	  43.5569000000
S	  21.4412000000	  25.8792000000	  39.4968000000
S	  22.8965000000	  24.8380000000	  38.4353000000
