35

Li	  34.1219000000	  54.9897000000	  57.3913000000
O	  32.3798000000	  56.1645000000	  57.1604000000
O	  31.3337000000	  57.9498000000	  56.4943000000
C	  31.3668000000	  55.7438000000	  56.3236000000
C	  30.3366000000	  56.8926000000	  56.4914000000
C	  32.5752000000	  57.4755000000	  56.8012000000
H	  31.7473000000	  55.7702000000	  55.2696000000
H	  30.8518000000	  54.7877000000	  56.4386000000
H	  29.5990000000	  57.0602000000	  55.6870000000
H	  29.9362000000	  56.8608000000	  57.4866000000
H	  32.9236000000	  58.0602000000	  57.5965000000
H	  33.2758000000	  57.7121000000	  56.0047000000
N	  33.3207000000	  51.9440000000	  55.8160000000
S	  34.4403000000	  52.7443000000	  55.0691000000
O	  34.5907000000	  54.1322000000	  55.4569000000
O	  35.6485000000	  51.9841000000	  54.9009000000
C	  33.7683000000	  52.8942000000	  53.3843000000
F	  33.4807000000	  51.6880000000	  52.8662000000
F	  34.6593000000	  53.3766000000	  52.5239000000
F	  32.7181000000	  53.6537000000	  53.3377000000
S	  32.8384000000	  52.0844000000	  57.3173000000
O	  31.4146000000	  51.8871000000	  57.5059000000
O	  33.4863000000	  53.2289000000	  57.9579000000
C	  33.5277000000	  50.6834000000	  58.0473000000
F	  33.2642000000	  49.5843000000	  57.3190000000
F	  34.8906000000	  50.7356000000	  58.0579000000
F	  33.1348000000	  50.4247000000	  59.2650597529
S	  35.7328000000	  56.0634000000	  58.2780000000
S	  35.2494000000	  55.2776000000	  60.1914897529
S	  33.6273000000	  56.2462000000	  61.0599497529
S	  28.8104000000	  55.7098000000	  62.5105097529
S	  29.1472000000	  57.3158000000	  63.8592897529
S	  27.4743000000	  58.5342000000	  64.2201297529
S	  30.0215000000	  56.0953000000	  60.8576697529
S	  31.9079000000	  54.9774000000	  60.8016097529
