39

Li	  41.8491000000	  37.6248000000	  38.9372000000
N	  39.5845000000	  34.9904000000	  39.8344000000
S	  40.2041000000	  34.8897000000	  38.3706000000
O	  41.1676000000	  35.9127000000	  38.0524000000
O	  40.4588000000	  33.5785000000	  37.9108000000
C	  38.6999000000	  35.3851000000	  37.3667000000
F	  37.6728000000	  34.5596000000	  37.6280000000
F	  38.8907000000	  35.3843000000	  36.0837000000
F	  38.3602000000	  36.6552000000	  37.6692000000
S	  39.2141000000	  33.7694000000	  40.7994000000
O	  39.7869000000	  32.4496000000	  40.5659000000
O	  37.7929000000	  33.7851000000	  41.2194000000
C	  40.0850000000	  34.2584000000	  42.3365000000
F	  39.7166000000	  33.5687000000	  43.4047000000
F	  41.3878000000	  33.9936000000	  42.2386000000
F	  40.0209000000	  35.5107000000	  42.6475000000
N	  38.5337000000	  39.3314000000	  39.1865000000
S	  37.4800000000	  40.5240000000	  39.1130000000
O	  36.1701000000	  40.0497000000	  39.4800000000
O	  38.0221000000	  41.8015000000	  39.4966000000
C	  37.3504000000	  40.6768000000	  37.3560000000
F	  36.2031000000	  41.2624000000	  37.0245000000
F	  37.2488000000	  39.5374000000	  36.7330000000
F	  38.3737000000	  41.4147000000	  36.8091000000
S	  39.4733000000	  39.1762000000	  40.3838000000
O	  39.9442000000	  40.3774000000	  40.9479000000
O	  40.4717000000	  38.1658000000	  40.2267000000
C	  38.5054000000	  38.3830000000	  41.6264000000
F	  39.2435000000	  37.9142000000	  42.6198000000
F	  37.5394000000	  39.1933000000	  42.1357000000
F	  37.8887000000	  37.3490000000	  41.0610000000
S	  49.5764000000	  36.5507000000	  44.2717000000
S	  50.8757000000	  37.9837000000	  43.4023000000
S	  50.0362000000	  39.9634000000	  43.0691000000
S	  46.0652000000	  39.5700000000	  39.5195000000
S	  44.0430000000	  39.2576000000	  39.7831000000
S	  43.5160000000	  37.1306000000	  39.9979000000
S	  47.0314000000	  40.3231000000	  41.2653000000
S	  49.0824000000	  40.1592000000	  41.1546000000
