94

Li	   6.0922500000	  54.9918000000	  36.8331000000
P	   7.6078500000	  51.9841000000	  36.3642000000
O	   7.1875500000	  51.0239000000	  35.2033000000
O	   9.1878000000	  51.9238000000	  36.2147000000
O	   7.3256300000	  50.9617000000	  37.6097000000
O	   6.9909200000	  53.3453000000	  36.3240000000
C	   5.9637600000	  51.1206000000	  34.5056000000
C	   9.7734400000	  52.9039000000	  35.4049000000
C	   7.5392900000	  51.3669000000	  38.9281000000
C	   4.6771000000	  51.0377000000	  35.4180000000
C	  11.0061000000	  53.4275000000	  36.1947000000
C	   8.9138700000	  51.7652000000	  39.3351000000
H	   5.8695800000	  51.9856000000	  33.8760000000
H	   6.0088700000	  50.3340000000	  33.8453000000
H	  10.0620000000	  52.4075000000	  34.5064000000
H	   9.0343600000	  53.6085000000	  35.0527000000
H	   6.8661900000	  52.1893000000	  39.1227000000
H	   7.2688400000	  50.4985000000	  39.5416000000
H	   4.7696200000	  50.1289000000	  36.0412000000
H	   4.7434400000	  51.8947000000	  36.0514000000
H	   3.7806900000	  51.0650000000	  34.8984000000
H	  10.7835000000	  53.8748000000	  37.1683000000
H	  11.7039000000	  52.5474000000	  36.2859000000
H	  11.5794000000	  54.1556000000	  35.6850000000
H	   9.3648500000	  52.5609000000	  38.6952000000
H	   8.9525900000	  52.0250000000	  40.3839000000
H	   9.6227400000	  50.9854000000	  39.1168000000
P	   4.3914300000	  56.3446000000	  34.2763000000
O	   2.8048100000	  56.1579000000	  34.1348000000
O	   4.6091700000	  57.9476000000	  34.0444000000
O	   4.8094700000	  55.7602000000	  32.8527000000
O	   5.0283500000	  55.7988000000	  35.4843000000
C	   1.8834200000	  56.5641000000	  35.2364000000
C	   5.9494900000	  58.4881000000	  34.2097000000
C	   4.7228300000	  54.3433000000	  32.6224000000
C	   1.7327200000	  58.1185000000	  35.4440000000
C	   6.9495200000	  58.0337000000	  33.1583000000
C	   3.5300600000	  54.0979000000	  31.6865000000
H	   0.9617030000	  56.0570000000	  34.9321000000
H	   2.1344500000	  56.0603000000	  36.1590000000
H	   5.7388200000	  59.5333697529	  34.1585000000
H	   6.4190600000	  58.3097000000	  35.2054000000
H	   5.6528400000	  53.9954000000	  32.2675000000
H	   4.5748600000	  53.7149000000	  33.5262000000
H	   1.8472800000	  58.7275000000	  34.6161000000
H	   0.7016702471	  58.3267000000	  35.7714000000
H	   2.4827700000	  58.4531000000	  36.1477000000
H	   7.8494700000	  58.5842000000	  33.3709000000
H	   7.2307600000	  56.9750000000	  33.3557000000
H	   6.5237900000	  58.1012000000	  32.1674000000
H	   3.5004000000	  52.9949000000	  31.4296000000
H	   2.6346700000	  54.2079000000	  32.3062000000
H	   3.5851500000	  54.7046000000	  30.7981000000
P	   7.6833500000	  57.3739000000	  38.4318000000
O	   8.5972200000	  58.3667000000	  37.4884000000
O	   6.6358600000	  58.4466000000	  39.1758000000
O	   8.6771600000	  56.9331000000	  39.6138000000
O	   7.0154100000	  56.2239000000	  37.7856000000
C	   9.8339000000	  57.9279000000	  37.0770000000
C	   5.2442700000	  58.4168000000	  39.0214000000
C	   8.1618800000	  56.2550000000	  40.7839000000
C	   9.7452000000	  57.4885000000	  35.6004000000
C	   4.4652300000	  57.8229000000	  40.2299000000
C	   8.7439900000	  54.8524000000	  40.8025000000
H	  10.5528000000	  58.7125000000	  37.2220000000
H	  10.1953000000	  57.2621000000	  37.7994000000
H	   4.9609000000	  59.4490997529	  38.9396000000
H	   5.1889300000	  57.8282000000	  38.0707000000
H	   8.3822700000	  56.7747000000	  41.7337000000
H	   7.1193800000	  56.3811000000	  40.6270000000
H	   9.2409400000	  58.2083000000	  34.9460000000
H	  10.7211000000	  57.3372000000	  35.1847000000
H	   9.1638600000	  56.5864000000	  35.6131000000
H	   4.6137800000	  58.4529000000	  41.0918000000
H	   3.4088900000	  57.8030000000	  40.0127000000
H	   4.6295500000	  56.6808000000	  40.3107000000
H	   8.5239400000	  54.3349000000	  41.7255000000
H	   8.4848800000	  54.2703000000	  39.9530000000
H	   9.8062500000	  55.0494000000	  40.7328000000
N	   2.6610800000	  54.9226000000	  39.1994000000
S	   3.3111600000	  53.6822000000	  38.5864000000
O	   2.3851500000	  52.6910000000	  38.0682000000
O	   4.4867000000	  53.9814000000	  37.8718000000
C	   3.9283800000	  52.9917000000	  40.1960000000
F	   4.8748400000	  53.7666000000	  40.6785000000
F	   4.5755900000	  51.8560000000	  40.0766000000
F	   2.9448100000	  52.8357000000	  41.1117000000
S	   1.1848700000	  55.5471000000	  39.0195000000
O	   0.1893702471	  54.6652000000	  38.5105000000
O	   1.2733700000	  56.8664000000	  38.4526000000
C	   0.6923702471	  55.8348000000	  40.7102000000
F	   1.2958200000	  56.8767000000	  41.3252000000
F	  -0.6063297529	  56.0657000000	  40.8028000000
F	   0.8807702471	  54.7456000000	  41.3289000000
