87

Li	  54.3592000000	  30.0926000000	  21.1448000000
P	  52.1552000000	  32.6658000000	  22.2157000000
O	  50.5858000000	  32.7304000000	  21.7971000000
O	  52.0960000000	  32.5555000000	  23.8409000000
O	  52.5861000000	  34.1729000000	  21.8314000000
O	  52.9737000000	  31.6042000000	  21.5880000000
C	  50.0975000000	  33.1506000000	  20.5273000000
C	  51.2272000000	  31.7184000000	  24.5125000000
C	  53.9381000000	  34.6475000000	  21.9716000000
C	  50.2315000000	  32.0756000000	  19.5024000000
C	  49.8199000000	  32.3135000000	  24.6522000000
C	  54.1826000000	  34.9440000000	  23.4161000000
H	  49.0301000000	  33.3714000000	  20.5624000000
H	  50.7706000000	  33.9840000000	  20.2593000000
H	  51.2081000000	  30.7082000000	  24.0660000000
H	  51.6362000000	  31.5988000000	  25.5493000000
H	  54.6678000000	  33.8579000000	  21.7678000000
H	  54.2155000000	  35.5595000000	  21.3939000000
H	  50.0681000000	  32.3662000000	  18.4338000000
H	  51.1832000000	  31.7281000000	  19.5604000000
H	  49.6804000000	  31.2024000000	  19.8244000000
H	  49.3326000000	  32.4326000000	  23.6585000000
H	  49.3291000000	  31.5998000000	  25.3488000000
H	  49.7726000000	  33.3047000000	  25.1955000000
H	  55.2433000000	  35.1596000000	  23.4298000000
H	  53.6465000000	  35.8270000000	  23.7186000000
H	  53.9938000000	  34.0664000000	  24.0661000000
P	  56.4650000000	  29.3933000000	  23.6231000000
O	  57.3476000000	  30.7489000000	  24.0509000000
O	  56.2429000000	  28.6131000000	  25.0803000000
O	  57.7299000000	  28.5433000000	  23.0586000000
O	  55.2820000000	  29.5843000000	  22.6842000000
C	  56.7280000000	  32.0404000000	  24.0948000000
C	  55.0167000000	  27.8135000000	  25.1353000000
C	  58.2460000000	  28.5647000000	  21.7053000000
C	  56.2116000000	  32.2972000000	  25.4971000000
C	  55.1183000000	  26.6700000000	  24.1037000000
C	  57.3296000000	  27.8360000000	  20.7629000000
H	  57.4421000000	  32.7561000000	  23.7096000000
H	  56.0429000000	  32.0884000000	  23.2789000000
H	  55.0368000000	  27.3940000000	  26.1180000000
H	  54.0996000000	  28.4031000000	  24.9513000000
H	  58.4883000000	  29.5691000000	  21.3201000000
H	  59.2411897529	  28.1021000000	  21.6764000000
H	  55.8849000000	  33.3300000000	  25.6672000000
H	  55.3914000000	  31.6315000000	  25.7867000000
H	  56.9239000000	  32.0368000000	  26.2682000000
H	  56.1932000000	  26.3396000000	  24.1269000000
H	  54.4691000000	  25.8495000000	  24.5157000000
H	  54.8690000000	  26.9434000000	  23.1182000000
H	  57.0225000000	  26.8333000000	  21.1857000000
H	  56.3427000000	  28.2738000000	  20.7373000000
H	  57.5398000000	  27.7092000000	  19.6557000000
P	  53.6124000000	  26.7995000000	  19.5220000000
O	  53.7500000000	  25.5859000000	  20.6069000000
O	  55.0567000000	  26.8937000000	  18.7966000000
O	  53.6155000000	  28.1269000000	  20.5400000000
O	  52.3983000000	  26.7782000000	  18.6263000000
C	  54.2656000000	  24.3549000000	  20.2430000000
C	  55.4135000000	  27.3529000000	  17.5169000000
C	  52.7318000000	  28.1590000000	  21.6873000000
C	  54.2000000000	  23.3638000000	  21.3946000000
C	  55.6387000000	  26.1132000000	  16.5049000000
C	  51.3234000000	  28.5423000000	  21.2972000000
H	  53.6778000000	  23.9629000000	  19.4655000000
H	  55.2619000000	  24.6007000000	  19.8928000000
H	  54.6367000000	  27.9842000000	  17.0993000000
H	  56.3289000000	  27.9990000000	  17.6148000000
H	  52.7563000000	  27.2539000000	  22.2329000000
H	  52.9892000000	  28.8971000000	  22.4032000000
H	  53.1547000000	  23.2992000000	  21.7009000000
H	  54.3855000000	  22.3657000000	  20.9621000000
H	  54.8085000000	  23.4576000000	  22.2724000000
H	  56.0087000000	  26.3654000000	  15.5627000000
H	  56.2602000000	  25.4492000000	  16.9457000000
H	  54.6868000000	  25.7006000000	  16.3261000000
H	  50.9938000000	  27.9111000000	  20.4708000000
H	  50.6802000000	  28.3270000000	  22.1375000000
H	  51.2823000000	  29.6268000000	  20.9399000000
S	  57.7965000000	  40.1433000000	  20.5307000000
S	  56.0585000000	  39.5486000000	  19.4331000000
S	  56.7051000000	  38.4487000000	  17.7699000000
S	  55.6657000000	  33.5490000000	  17.5915000000
S	  54.5085000000	  32.0604000000	  18.4891000000
S	  55.6149000000	  30.7182000000	  19.6215000000
S	  55.4887000000	  35.4408000000	  18.5650000000
S	  55.2095000000	  37.0235000000	  17.3628000000
