38

Li	  55.4117000000	  29.3693000000	   4.6583600000
O	  54.5138000000	  28.9534000000	   2.9921600000
O	  53.3460000000	  27.4847000000	   1.9256900000
C	  53.4509000000	  29.7489000000	   2.4460900000
C	  52.5278000000	  28.6868000000	   1.8881900000
C	  54.5774000000	  27.8753000000	   2.1939400000
H	  53.0491000000	  30.4237000000	   3.1875100000
H	  53.7574000000	  30.3274000000	   1.5413800000
H	  51.6517000000	  28.5084000000	   2.5398500000
H	  52.0831000000	  29.0254000000	   0.9173950000
H	  55.1318000000	  28.0158000000	   1.2495800000
H	  55.0646000000	  27.0367000000	   2.6798000000
O	  54.5046000000	  28.5778000000	   5.9848100000
O	  52.8481000000	  27.3361000000	   6.5998600000
C	  55.0702000000	  27.3788000000	   6.4269400000
C	  54.0075000000	  26.6980000000	   7.2376600000
C	  53.1996000000	  28.6072000000	   6.2794100000
H	  55.3265000000	  26.8240000000	   5.5670200000
H	  56.0165000000	  27.4692000000	   6.9912200000
H	  54.1329000000	  25.6505000000	   7.4360400000
H	  54.0249000000	  27.1764000000	   8.2320600000
H	  52.8957000000	  29.2488000000	   7.1453000000
H	  52.5964000000	  28.9758000000	   5.4608200000
N	  59.1947117529	  27.3298000000	   3.0737400000
S	  58.5787000000	  28.7637000000	   3.4397600000
O	  57.2042000000	  28.6263000000	   3.8669300000
O	  59.3940397529	  29.6725000000	   4.1971800000
C	  58.5072000000	  29.5062000000	   1.7712400000
F	  57.7643000000	  28.8198000000	   0.9449620000
F	  59.7628097529	  29.5902000000	   1.3283100000
F	  57.9019000000	  30.6426000000	   1.6554500000
S	  58.6287000000	  25.9053000000	   3.0636500000
O	  59.1901147529	  25.1638000000	   1.9381500000
O	  57.1992000000	  25.8167000000	   3.2603100000
C	  59.4131197529	  25.1538000000	   4.5085300000
F	  59.1383297529	  25.8509000000	   5.6623200000
F	  59.0061000000	  23.8702000000	   4.6567200000
F	  60.7433597529	  25.0502000000	   4.5128400000
