42

Li	  12.4549000000	   4.9421800000	  57.0543000000
P	  15.5595000000	   4.9826000000	  55.7441000000
O	  16.5537000000	   3.7972800000	  56.1863000000
O	  15.7046000000	   4.8231500000	  54.1439000000
O	  16.3377000000	   6.3692500000	  56.0834000000
O	  14.1944000000	   4.8566300000	  56.3464000000
C	  16.5114000000	   3.2776300000	  57.5679000000
C	  15.1156000000	   3.9066000000	  53.2899000000
C	  15.9501000000	   7.6086200000	  55.6044000000
C	  17.4611000000	   4.1296300000	  58.4689000000
C	  13.6924000000	   4.2807800000	  52.9236000000
C	  14.4219000000	   7.9350500000	  55.8082000000
H	  15.4897000000	   3.3685800000	  57.8585000000
H	  16.8335000000	   2.2127300000	  57.5211000000
H	  15.6996000000	   3.5596800000	  52.4301000000
H	  15.0488000000	   2.9627000000	  53.9173000000
H	  16.5044000000	   8.4039400000	  56.0918000000
H	  16.2345000000	   7.6404200000	  54.5474000000
H	  17.4828000000	   5.1852900000	  58.1764000000
H	  17.2770000000	   4.0148800000	  59.5434897529
H	  18.4089000000	   3.7693400000	  58.2806000000
H	  13.1225000000	   4.3451900000	  53.8300000000
H	  13.5949000000	   5.1454000000	  52.2737000000
H	  13.1961000000	   3.5653500000	  52.3108000000
H	  13.8590000000	   7.4371900000	  55.0801000000
H	  14.1243000000	   7.6929400000	  56.8366000000
H	  14.3093000000	   9.0175800000	  55.6490000000
N	   9.7443400000	   5.3093800000	  54.0325000000
S	   9.2377100000	   4.7576300000	  52.7315000000
O	   9.5124300000	   5.6483900000	  51.6507000000
O	   9.5265000000	   3.3395700000	  52.6068000000
C	   7.3982400000	   4.8354100000	  52.9959000000
F	   6.7451400000	   4.7825700000	  51.8773000000
F	   7.0612900000	   5.9286000000	  53.6379000000
F	   7.0247300000	   3.8766900000	  53.8386000000
S	  10.8619000000	   6.3029400000	  54.4200000000
O	  11.7559000000	   6.8236400000	  53.3946000000
O	  11.4005000000	   6.0127600000	  55.7321000000
C	   9.7756100000	   7.7204600000	  54.7726000000
F	   9.1702600000	   8.0884800000	  53.6149000000
F	   8.8236500000	   7.4143700000	  55.6415000000
F	  10.4687000000	   8.7858100000	  55.1208000000
