27

Li	  43.9400000000	  29.8413000000	   8.5322900000
O	  43.5103000000	  28.1136000000	   9.2535400000
O	  42.2692000000	  26.9311000000	  10.6384000000
C	  44.1469000000	  26.8180000000	   9.3894000000
C	  43.5293000000	  26.3522000000	  10.6743000000
C	  42.2115000000	  27.9237000000	   9.6482900000
H	  44.0595000000	  26.2470000000	   8.4578700000
H	  45.1733000000	  26.9370000000	   9.4447400000
H	  43.5189000000	  25.2809000000	  10.6162000000
H	  44.0589000000	  26.6826000000	  11.4976000000
H	  41.7792000000	  28.8177000000	  10.1743000000
H	  41.6102000000	  27.6571000000	   8.7804300000
N	  41.8687000000	  33.4716000000	   9.4285800000
S	  41.4477000000	  34.1898000000	   8.1657600000
O	  42.4262000000	  34.1129000000	   7.1320600000
O	  40.0339000000	  33.9321000000	   7.8752700000
C	  41.4475000000	  35.9475000000	   8.7396400000
F	  40.5832000000	  36.6850000000	   8.0740800000
F	  42.5998000000	  36.5754000000	   8.5959200000
F	  41.1272000000	  36.0638000000	  10.0383000000
S	  43.2992000000	  32.8525000000	   9.8068900000
O	  44.4565000000	  33.6271000000	   9.3891600000
O	  43.3921000000	  31.4273000000	   9.4943500000
C	  43.3680000000	  33.0192000000	  11.6332000000
F	  43.2869000000	  34.3055000000	  11.9306000000
F	  42.3819000000	  32.4227000000	  12.3426000000
F	  44.4876000000	  32.5268000000	  12.1016000000
