75

Li	  21.8216000000	  27.7778000000	  17.1231000000
O	  21.4622000000	  29.5022000000	  17.5401000000
O	  21.1217000000	  31.7421000000	  17.7364000000
C	  20.6567000000	  29.8848000000	  16.4329000000
C	  20.2064000000	  31.2712000000	  16.7858000000
C	  22.0755000000	  30.7364000000	  17.9200000000
H	  21.3412000000	  30.0611000000	  15.6632000000
H	  19.9094000000	  29.1328000000	  16.1434000000
H	  20.1162000000	  31.7931000000	  15.8714000000
H	  19.1485000000	  31.0934000000	  17.1963000000
H	  22.2769000000	  30.7244000000	  19.0253000000
H	  22.9753000000	  30.8251000000	  17.3912000000
O	  22.0130000000	  25.5200000000	  14.1436000000
O	  22.0040000000	  27.4623000000	  15.2360000000
C	  23.0718000000	  26.2463000000	  13.5555000000
C	  23.1254000000	  27.4689000000	  14.4303000000
C	  21.2183000000	  26.5377000000	  14.6282000000
H	  24.0091000000	  25.5973000000	  13.5897000000
H	  22.8731000000	  26.5606000000	  12.5187000000
H	  24.0820000000	  27.4690000000	  14.9669000000
H	  23.0673000000	  28.3033000000	  13.7793000000
H	  20.6922000000	  27.0633000000	  13.8295000000
H	  20.3933000000	  26.1493000000	  15.2187000000
P	  24.7702000000	  26.5164000000	  18.0378000000
O	  26.0264000000	  26.9857000000	  17.0978000000
O	  25.3392000000	  26.6450000000	  19.6025000000
O	  24.8533000000	  24.9186000000	  17.6848000000
O	  23.4224000000	  27.1317000000	  17.7821000000
C	  26.6413000000	  28.2519000000	  17.2772000000
C	  24.7228000000	  27.2978000000	  20.6540000000
C	  24.7920000000	  24.4275000000	  16.4119000000
C	  25.7435000000	  29.4111000000	  16.8340000000
C	  24.6220000000	  28.8468000000	  20.3283000000
C	  26.1475000000	  23.7229000000	  16.0615000000
H	  26.8664000000	  28.3631000000	  18.3535000000
H	  27.5889000000	  28.3349000000	  16.8104000000
H	  23.6217000000	  26.9215000000	  20.8508000000
H	  25.2521000000	  27.0118000000	  21.5839000000
H	  23.9896000000	  23.6875000000	  16.2304000000
H	  24.5820000000	  25.2237000000	  15.7479000000
H	  25.1577000000	  29.0687000000	  15.9984000000
H	  24.9890000000	  29.7758000000	  17.5934000000
H	  26.2865000000	  30.2925000000	  16.5360000000
H	  25.5897000000	  29.3756000000	  20.3953000000
H	  24.0850000000	  29.0238000000	  19.4242000000
H	  24.0713000000	  29.3533000000	  21.1930000000
H	  26.1289000000	  23.3803000000	  15.0055000000
H	  26.9584000000	  24.4382000000	  16.0540000000
H	  26.4189000000	  22.9732000000	  16.7733000000
P	  18.9892000000	  26.2673000000	  18.3940000000
O	  19.0797000000	  24.6727000000	  18.4142000000
O	  19.1544000000	  26.6652000000	  19.9544000000
O	  17.4307000000	  26.4954000000	  18.1756000000
O	  19.9839000000	  26.9416000000	  17.4661000000
C	  19.9822000000	  23.8994000000	  19.2090000000
C	  19.2594000000	  27.9815000000	  20.4373000000
C	  16.8941000000	  26.8114000000	  16.8735000000
C	  21.3989000000	  23.9095000000	  18.5296000000
C	  20.7529000000	  28.2935000000	  20.5411000000
C	  17.0654000000	  25.7670000000	  15.7842000000
H	  20.0478000000	  24.4164000000	  20.1738000000
H	  19.6826000000	  22.8773000000	  19.3579000000
H	  18.8741000000	  28.6444000000	  19.7054000000
H	  18.8108000000	  28.0852000000	  21.3958000000
H	  15.8393000000	  27.0930000000	  16.9448000000
H	  17.4119000000	  27.7540000000	  16.6319000000
H	  21.3444000000	  23.7878000000	  17.4752000000
H	  21.9369000000	  24.8000000000	  18.8637000000
H	  21.9561000000	  22.9866000000	  18.7937000000
H	  21.3188000000	  28.3009000000	  19.5997000000
H	  20.7682000000	  29.2587000000	  21.1149000000
H	  21.0834000000	  27.5599000000	  21.1745000000
H	  16.7747000000	  26.2298000000	  14.8493000000
H	  18.1090000000	  25.3963000000	  15.5874000000
H	  16.4652000000	  24.8426000000	  15.9182000000
