50

Li	  44.0410000000	  56.2808000000	  19.1036000000
P	  41.9899000000	  57.0091000000	  21.4645000000
O	  40.6616000000	  56.1427000000	  20.9771000000
O	  42.1465000000	  56.4417000000	  22.9735000000
O	  41.3842000000	  58.4734000000	  21.7493000000
O	  43.1302000000	  57.0058000000	  20.5118000000
C	  40.6310000000	  55.5713000000	  19.6806000000
C	  42.7455000000	  55.1754000000	  23.2992000000
C	  41.3048000000	  59.4257897529	  20.7014000000
C	  40.3619000000	  54.0729000000	  19.6382000000
C	  41.6962000000	  54.0962000000	  23.3874000000
C	  42.5407000000	  60.3972497529	  20.7555000000
H	  39.8236000000	  56.0559000000	  19.1753000000
H	  41.5066000000	  55.7921000000	  19.0456000000
H	  43.6867000000	  54.9871000000	  22.7420000000
H	  43.0070000000	  55.3638000000	  24.3098000000
H	  41.2593000000	  58.9447000000	  19.7771000000
H	  40.4680000000	  60.0709597529	  20.7531000000
H	  41.0593000000	  53.4835000000	  20.2323000000
H	  39.2682000000	  53.9365000000	  19.8161000000
H	  40.4369000000	  53.6976000000	  18.5841000000
H	  42.2597000000	  53.1299000000	  23.7206000000
H	  41.0159000000	  54.3833000000	  24.2101000000
H	  41.1706000000	  53.9641000000	  22.4445000000
H	  43.4289000000	  59.7996697529	  20.8776000000
H	  42.5889000000	  60.9644597529	  19.7938000000
H	  42.5373000000	  60.9767097529	  21.6788000000
N	  45.9913000000	  53.5872000000	  20.3055000000
S	  46.7401000000	  54.9785000000	  20.2219000000
O	  46.1668000000	  55.9684000000	  19.3589000000
O	  47.2532000000	  55.4605000000	  21.4971000000
C	  48.3074000000	  54.4698000000	  19.3485000000
F	  49.2113000000	  53.7765000000	  20.0054000000
F	  48.9666000000	  55.5152000000	  18.9371000000
F	  47.9752000000	  53.7822000000	  18.2193000000
S	  44.4538000000	  53.2328000000	  19.9600000000
O	  43.7344000000	  54.3163000000	  19.3477000000
O	  43.7337000000	  52.4740000000	  20.9464000000
C	  44.7240000000	  52.0338000000	  18.5538000000
F	  45.6173000000	  51.0537000000	  18.8063000000
F	  43.6465000000	  51.3333000000	  18.1988000000
F	  45.1796000000	  52.5997000000	  17.4207000000
S	  33.1108000000	  61.5253797529	  19.2271000000
S	  34.6152000000	  61.4936497529	  17.8359000000
S	  36.0690000000	  60.1446897529	  18.5316000000
S	  40.6059000000	  58.1613000000	  17.0781000000
S	  42.6425000000	  58.6591000000	  16.8523000000
S	  43.9938000000	  57.0551000000	  17.1517000000
S	  39.3724000000	  59.8196997529	  17.1241000000
S	  37.3415000000	  59.3728297529	  17.0319000000
