68

Li	  59.0596000000	  28.6577000000	  28.8577000000
P	  59.7223197529	  32.0027000000	  29.2566000000
O	  58.9180000000	  33.1423000000	  28.4250000000
O	  59.6647697529	  32.3318000000	  30.8375000000
O	  61.2206097529	  32.4834000000	  28.9362000000
O	  59.4681297529	  30.5812000000	  28.8567000000
C	  58.5640000000	  32.9914000000	  27.1035000000
C	  59.1977097529	  31.3562000000	  31.7010000000
C	  62.2315297529	  31.8200000000	  29.6988000000
C	  57.5358000000	  34.0426000000	  26.7583000000
C	  59.3191597529	  31.8433000000	  33.0953000000
C	  63.6184297529	  32.4050000000	  29.3029000000
H	  59.4022397529	  33.1780000000	  26.4187000000
H	  58.0973000000	  32.0491000000	  27.0656000000
H	  58.1355000000	  31.1429000000	  31.4859000000
H	  59.8092197529	  30.4878000000	  31.5444000000
H	  61.9715197529	  31.8357000000	  30.7495000000
H	  62.2791197529	  30.7864000000	  29.3829000000
H	  58.0068000000	  34.9898000000	  27.1171000000
H	  57.3017000000	  34.0691000000	  25.6822000000
H	  56.6368000000	  33.8137000000	  27.3239000000
H	  58.6281000000	  31.4040000000	  33.8206000000
H	  60.3863697529	  31.5954000000	  33.3158000000
H	  59.2372897529	  32.9110000000	  33.1092000000
H	  64.3358397529	  32.1206000000	  29.9797000000
H	  63.8615997529	  31.8998000000	  28.3038000000
H	  63.6069397529	  33.4856000000	  29.1657000000
P	  56.5236000000	  28.2498000000	  30.9142000000
O	  57.1378000000	  28.5567000000	  32.3802000000
O	  55.4202000000	  29.3541000000	  30.7164000000
O	  55.6710000000	  26.8681000000	  31.1132000000
O	  57.6006000000	  28.1766000000	  29.8563000000
C	  58.0776000000	  27.5900000000	  32.9903000000
C	  55.0787000000	  29.9276000000	  29.4322000000
C	  54.8418000000	  26.4552000000	  29.9958000000
C	  58.0657000000	  27.7895000000	  34.4908000000
C	  56.0217000000	  30.9109000000	  28.8107000000
C	  54.7634000000	  24.9038000000	  29.8254000000
H	  57.8418000000	  26.5201000000	  32.7455000000
H	  58.9586000000	  27.8904000000	  32.5063000000
H	  54.9094000000	  29.1458000000	  28.7296000000
H	  54.1292000000	  30.3921000000	  29.6365000000
H	  53.7779000000	  26.8396000000	  29.9018000000
H	  55.3520000000	  26.7531000000	  29.0795000000
H	  59.0036000000	  27.3441000000	  34.9365000000
H	  57.8765000000	  28.8646000000	  34.7236000000
H	  57.2469000000	  27.3002000000	  34.9660000000
H	  57.0510000000	  30.5113000000	  28.6484000000
H	  55.6466000000	  31.1594000000	  27.8097000000
H	  55.9855000000	  31.8227000000	  29.3664000000
H	  54.1167000000	  24.4264000000	  30.6168000000
H	  54.3030000000	  24.7030000000	  28.8492000000
H	  55.6806000000	  24.2632000000	  29.8540000000
N	  61.9227697529	  25.1798000000	  29.6075000000
S	  62.9716297529	  24.1847000000	  30.1786000000
O	  63.1217097529	  24.2359000000	  31.6072000000
O	  63.0282697529	  22.9324000000	  29.5430000000
C	  64.4742297529	  25.0501000000	  29.5443000000
F	  64.6066297529	  26.2897000000	  29.9071000000
F	  64.4654097529	  25.0860000000	  28.2169000000
F	  65.5730597529	  24.4396000000	  29.9113000000
S	  60.5191397529	  25.6164000000	  30.1335000000
O	  60.2172397529	  26.9713000000	  29.6819000000
O	  60.3804397529	  25.4194000000	  31.5365000000
C	  59.3518697529	  24.4533000000	  29.3094000000
F	  59.7217497529	  23.1432000000	  29.3458000000
F	  58.1052000000	  24.5521000000	  29.6632000000
F	  59.3453097529	  24.6650000000	  28.0025000000
