83

Li	  17.7347000000	  37.3657000000	  30.5709000000
P	  18.7835000000	  34.3179000000	  31.2373000000
O	  19.5377000000	  34.0154000000	  32.6366000000
O	  17.4719000000	  33.3236000000	  31.2946000000
O	  19.6195000000	  33.5824000000	  30.0867000000
O	  18.4692000000	  35.7676000000	  30.9123000000
C	  19.4974000000	  34.8145000000	  33.8141000000
C	  16.3280000000	  33.6658000000	  30.4723000000
C	  19.3219000000	  33.7651000000	  28.6903000000
C	  18.1688000000	  34.3889000000	  34.5369000000
C	  15.3933000000	  34.5201000000	  31.3045000000
C	  19.8924000000	  32.6025000000	  27.9005000000
H	  20.4174000000	  34.6877000000	  34.3794000000
H	  19.5138000000	  35.8325000000	  33.4914000000
H	  16.6305000000	  34.2882000000	  29.5813000000
H	  15.8379000000	  32.6904000000	  30.1705000000
H	  18.3120000000	  33.6762000000	  28.3141000000
H	  19.7600000000	  34.7179000000	  28.3370000000
H	  17.4285000000	  34.5020000000	  33.7863000000
H	  18.1033000000	  33.3389000000	  34.7806000000
H	  17.8917000000	  34.9436000000	  35.4290000000
H	  14.9928000000	  34.1434000000	  32.2301000000
H	  15.9026000000	  35.4349000000	  31.4827000000
H	  14.4947000000	  34.5857000000	  30.6423000000
H	  19.4810000000	  31.6736000000	  28.2162000000
H	  19.5959000000	  32.6274000000	  26.8551000000
H	  20.9666000000	  32.6657000000	  28.0013000000
P	  19.8921000000	  39.8078000000	  30.1625000000
O	  19.5391000000	  41.0169000000	  31.2053000000
O	  21.1672000000	  39.2025000000	  30.9280000000
O	  20.5167000000	  40.6162000000	  28.9339000000
O	  18.7552000000	  38.8534000000	  29.9588000000
C	  18.3508000000	  41.7498000000	  30.8496000000
C	  21.2530000000	  37.8085000000	  31.1768000000
C	  21.2637000000	  39.9687000000	  27.9528000000
C	  18.2586000000	  43.1789000000	  31.4823000000
C	  21.5071000000	  36.9069000000	  30.0229000000
C	  22.7672000000	  40.4040000000	  28.2391000000
H	  18.2880000000	  41.9456000000	  29.7497000000
H	  17.4550000000	  41.0698000000	  31.0477000000
H	  22.1947000000	  37.7609000000	  31.7808000000
H	  20.4065000000	  37.3345000000	  31.8075000000
H	  21.2611000000	  38.8705000000	  28.0263000000
H	  21.1160000000	  40.3360000000	  26.9998000000
H	  17.3235000000	  43.7115000000	  31.2932000000
H	  18.4892000000	  43.0726000000	  32.5205000000
H	  18.9976000000	  43.8482000000	  31.0501000000
H	  20.7378000000	  36.9869000000	  29.2214000000
H	  22.4925000000	  37.2522000000	  29.5835000000
H	  21.4928000000	  35.8883000000	  30.3683000000
H	  22.9374000000	  41.4835000000	  28.2596000000
H	  23.1520000000	  39.9284000000	  29.1624000000
H	  23.3405000000	  40.0430000000	  27.4181000000
N	  16.4567000000	  39.4544000000	  34.2289000000
S	  16.2827000000	  38.1104000000	  33.3752000000
O	  17.3359000000	  37.9514000000	  32.4116000000
O	  15.7996000000	  37.0081000000	  34.1228000000
C	  14.8865000000	  38.6160000000	  32.3442000000
F	  14.2962000000	  37.6446000000	  31.6783000000
F	  15.1992000000	  39.5230000000	  31.4686000000
F	  13.9177000000	  39.1852000000	  33.0650000000
S	  17.3718000000	  39.7127000000	  35.5205000000
O	  18.4347000000	  38.7748000000	  35.6117000000
O	  16.6795000000	  40.0997000000	  36.7451000000
C	  18.3244000000	  41.2312000000	  35.0831000000
F	  17.5281000000	  42.2032000000	  34.6769000000
F	  19.1005000000	  41.8130000000	  35.9912000000
F	  18.9903000000	  41.0157000000	  34.0505000000
N	  17.1682000000	  37.8168000000	  27.1943000000
S	  17.6451000000	  38.7543000000	  26.0645000000
O	  16.6443000000	  39.7578000000	  25.7373000000
O	  19.0209000000	  39.1756000000	  26.0109000000
C	  17.5065000000	  37.6312000000	  24.5955000000
F	  17.7468000000	  38.3537000000	  23.4621000000
F	  16.3035000000	  37.1181000000	  24.4124000000
F	  18.2985000000	  36.5625000000	  24.7603000000
S	  15.9522000000	  37.9147000000	  28.2082000000
O	  15.2083000000	  39.1436000000	  28.1899000000
O	  16.2866000000	  37.2585000000	  29.4641000000
C	  14.6811000000	  36.7385000000	  27.5826000000
F	  15.0446000000	  35.4781000000	  27.7653000000
F	  13.5526000000	  36.8507000000	  28.1807000000
F	  14.5530000000	  36.9209000000	  26.2717000000
