46

Li	  48.2419000000	  36.8290000000	  41.4589000000
O	  45.6457000000	  39.3313000000	  43.5101000000
O	  46.7383000000	  37.8102000000	  42.1104000000
C	  44.7275000000	  38.8070000000	  42.6484000000
C	  45.5556000000	  38.1862000000	  41.5297000000
C	  46.8521000000	  38.6036000000	  43.2793000000
H	  44.0931000000	  38.0944000000	  43.1399000000
H	  44.0824000000	  39.5815000000	  42.3649000000
H	  45.0313000000	  37.4205000000	  41.0098000000
H	  45.7718000000	  38.9324000000	  40.7760000000
H	  47.6471000000	  39.3956000000	  43.2147000000
H	  47.0348000000	  37.9582000000	  44.1389000000
O	  49.4154000000	  36.6333000000	  39.8955000000
O	  50.5955000000	  37.2350000000	  37.9975000000
C	  48.5154000000	  36.5484000000	  38.7444000000
C	  49.4112000000	  36.7005000000	  37.4831000000
C	  50.6094000000	  36.7193000000	  39.2669000000
H	  47.8384000000	  35.7565000000	  38.8260000000
H	  47.9021000000	  37.4818000000	  38.6695000000
H	  49.6213000000	  35.7487000000	  37.0277000000
H	  48.8773000000	  37.3437000000	  36.8066000000
H	  51.2763000000	  37.2923000000	  39.8964000000
H	  51.0969000000	  35.7118000000	  39.1729000000
N	  46.2333000000	  33.3272000000	  42.8029000000
S	  46.5438000000	  33.9476000000	  41.3562000000
O	  45.3936000000	  33.6910000000	  40.4478000000
O	  47.0466000000	  35.2611000000	  41.5010000000
C	  47.9211000000	  32.9587000000	  40.7022000000
F	  48.8127000000	  32.8077000000	  41.5979000000
F	  48.5002000000	  33.4318000000	  39.6158000000
F	  47.5152000000	  31.7640000000	  40.3786000000
S	  46.1214000000	  33.9407000000	  44.2479000000
O	  44.9466000000	  33.5483000000	  44.9960000000
O	  46.3924000000	  35.3412000000	  44.3361000000
C	  47.4552000000	  33.0717000000	  45.0282000000
F	  47.2463000000	  33.1740000000	  46.3221000000
F	  47.7018000000	  31.8142000000	  44.7547000000
F	  48.5750000000	  33.6608000000	  44.8887000000
S	  49.4092000000	  36.6066000000	  43.2384000000
S	  50.8034000000	  38.1151000000	  42.4907000000
S	  49.9314000000	  40.0860000000	  42.3802000000
S	  47.0518000000	  40.3456000000	  37.7385000000
S	  45.0276000000	  39.6602000000	  37.5102000000
S	  44.7116000000	  37.6200000000	  37.9878000000
S	  47.4958000000	  40.6931000000	  39.8021000000
S	  49.5382000000	  40.8317000000	  40.4077000000
