43

Li	  36.4959000000	  42.2804000000	  27.7010000000
P	  36.7013000000	  44.0140000000	  30.4032000000
O	  37.4632000000	  45.4099000000	  30.1290000000
O	  35.6550000000	  44.5124000000	  31.5141000000
O	  37.7755000000	  43.2212000000	  31.3248000000
O	  36.1374000000	  43.3612000000	  29.1920000000
C	  37.9238000000	  45.7878000000	  28.8233000000
C	  34.5931000000	  45.2907000000	  31.1957000000
C	  37.4215000000	  41.9606000000	  31.9308000000
C	  39.2615000000	  45.0621000000	  28.5202000000
C	  33.2620000000	  44.7123000000	  31.7652000000
C	  37.7185000000	  42.1080000000	  33.3858000000
H	  37.0746000000	  45.6703000000	  28.1316000000
H	  38.1382000000	  46.8471000000	  28.7631000000
H	  34.8062000000	  46.2689000000	  31.7337000000
H	  34.3627000000	  45.4460000000	  30.0904000000
H	  36.4083000000	  41.5778000000	  31.8102000000
H	  38.0517000000	  41.0886000000	  31.4887000000
H	  40.0728000000	  45.3372000000	  29.1965000000
H	  39.1125000000	  43.9546000000	  28.6486000000
H	  39.7180000000	  45.2849000000	  27.5089000000
H	  32.4176000000	  45.3343000000	  31.4816000000
H	  33.2160000000	  43.7372000000	  31.2832000000
H	  33.1651000000	  44.5073000000	  32.8742000000
H	  38.7751000000	  42.2861000000	  33.5973000000
H	  37.0712000000	  42.8156000000	  33.9627000000
H	  37.7275000000	  41.0781000000	  33.8303000000
S	  36.1559000000	  42.6867000000	  25.7440000000
S	  37.6893000000	  44.0014000000	  24.8593000000
S	  37.1220000000	  46.0942000000	  25.0761000000
S	  33.7469000000	  48.6832000000	  21.7442000000
S	  31.8543000000	  49.4390000000	  22.3713000000
S	  30.3286000000	  48.5705000000	  21.0930000000
S	  34.4818000000	  47.1397000000	  22.8887000000
S	  36.6118000000	  47.0850000000	  23.1809000000
S	  29.8743000000	  39.7690000000	  32.5591000000
S	  29.0469000000	  41.2428000000	  31.1333000000
S	  30.5340000000	  42.1691000000	  30.0983000000
S	  34.9268000000	  40.3871000000	  29.1523000000
S	  36.5490000000	  40.0269000000	  27.8491000000
S	  38.2282000000	  41.1781000000	  28.2401000000
S	  33.4521000000	  41.6352000000	  28.3094000000
S	  31.4031000000	  41.1347000000	  28.4866000000
