53

Li	  37.3847000000	  25.7323000000	  54.9050000000
O	  34.9765000000	  24.8503000000	  52.1042000000
O	  35.8471000000	  25.1289000000	  54.0948000000
C	  34.2790000000	  25.9033000000	  52.6820000000
C	  35.1553000000	  26.3262000000	  53.9099000000
C	  35.4961000000	  24.2128000000	  53.1835000000
H	  34.1641000000	  26.7720000000	  52.0021000000
H	  33.2631000000	  25.6101000000	  53.0385000000
H	  35.8825000000	  27.0955000000	  53.6335000000
H	  34.5984000000	  26.8016000000	  54.7534000000
H	  34.8623000000	  23.5216000000	  53.6220000000
H	  36.3736000000	  23.6305000000	  52.8890000000
P	  37.0470000000	  28.1848000000	  57.2803000000
O	  36.3914000000	  29.6476000000	  56.9389000000
O	  36.2454000000	  27.5957000000	  58.6274000000
O	  38.5431000000	  28.6624000000	  57.8786000000
O	  37.0450000000	  27.1956000000	  56.1531000000
C	  36.2777000000	  30.2252000000	  55.6805000000
C	  34.8054000000	  27.8310000000	  58.7055000000
C	  39.2611000000	  27.8313000000	  58.6803000000
C	  34.8165000000	  30.2925000000	  55.3021000000
C	  33.9353000000	  27.0987000000	  57.7287000000
C	  40.1314000000	  26.7679000000	  58.0406000000
H	  36.6237000000	  31.1909000000	  55.7261000000
H	  36.8591000000	  29.6199000000	  54.9183000000
H	  34.5492000000	  27.5706000000	  59.7743197529
H	  34.6328000000	  28.8617000000	  58.7090000000
H	  40.0434000000	  28.4428000000	  59.2046997529
H	  38.6745000000	  27.4330000000	  59.5265397529
H	  34.4174000000	  29.2447000000	  55.2561000000
H	  34.2718000000	  30.9565000000	  55.9198000000
H	  34.7777000000	  30.6957000000	  54.2603000000
H	  32.8357000000	  27.1622000000	  58.0138000000
H	  34.0395000000	  27.4507000000	  56.6860000000
H	  34.1913000000	  26.0619000000	  57.7137000000
H	  39.5010000000	  25.9992000000	  57.5562000000
H	  40.6672000000	  27.2494000000	  57.2824000000
H	  40.8377000000	  26.3023000000	  58.7507000000
N	  38.3678000000	  22.4356000000	  55.7927000000
S	  37.1767000000	  23.0438000000	  56.6211000000
O	  37.2388000000	  24.5243000000	  56.5501000000
O	  35.8424000000	  22.4689000000	  56.5485000000
C	  37.7468000000	  22.6280000000	  58.2878000000
F	  39.0434000000	  22.7470000000	  58.3966000000
F	  37.5382000000	  21.2956000000	  58.6008000000
F	  37.2109000000	  23.3944000000	  59.2388697529
S	  39.1311000000	  23.1507000000	  54.6478000000
O	  38.8409000000	  24.5047000000	  54.3971000000
O	  39.7006000000	  22.2621000000	  53.6644000000
C	  40.7045000000	  23.3236000000	  55.5688000000
F	  41.6759000000	  23.6584000000	  54.7644000000
F	  40.6854000000	  24.2075000000	  56.5486000000
F	  41.1056000000	  22.1558000000	  56.1298000000
