53

Li	  50.0499000000	   3.2035800000	  47.2483000000
O	  50.6009000000	   2.7722200000	  45.4346000000
O	  50.4551000000	   1.8536100000	  43.4270000000
C	  51.8466000000	   2.1910700000	  45.2144000000
C	  51.8181000000	   1.9176000000	  43.7057000000
C	  49.7206000000	   2.0623700000	  44.5085000000
H	  52.6863000000	   2.7426900000	  45.5632000000
H	  51.8729000000	   1.2282700000	  45.6194000000
H	  52.2218000000	   2.8287500000	  43.2221000000
H	  52.3443000000	   1.0669600000	  43.3969000000
H	  49.3658000000	   1.0956300000	  44.8987000000
H	  48.8565000000	   2.6875700000	  44.2396000000
O	  47.9539000000	   3.3390000000	  46.8512000000
O	  45.9533000000	   3.0016000000	  45.7887000000
C	  47.2296000000	   4.5691800000	  47.0187000000
C	  45.9873000000	   4.3050300000	  46.1458000000
C	  46.8668000000	   2.4559100000	  46.6228000000
H	  47.0215000000	   4.7943700000	  48.1305000000
H	  47.8197000000	   5.4694900000	  46.7812000000
H	  45.0951000000	   4.7021400000	  46.6334000000
H	  46.1154000000	   4.8707900000	  45.2496000000
H	  47.2953000000	   1.4586000000	  46.2760000000
H	  46.4160000000	   2.2536900000	  47.5873000000
N	  51.8848000000	   7.5053800000	  47.1046000000
S	  51.7855000000	   6.0103400000	  46.5526000000
O	  53.0947000000	   5.3933900000	  46.4036000000
O	  50.6760000000	   5.1736300000	  46.9658000000
C	  51.3303000000	   6.3879700000	  44.7988000000
F	  52.2579000000	   7.1522800000	  44.1724000000
F	  50.1796000000	   7.0209500000	  44.5324000000
F	  51.2377000000	   5.1836000000	  44.1502000000
S	  53.2535000000	   8.1951600000	  47.6706000000
O	  54.1111000000	   8.7856600000	  46.6189000000
O	  53.8255000000	   7.4301600000	  48.7059000000
C	  52.4812000000	   9.6008900000	  48.4599000000
F	  51.8359000000	  10.3483000000	  47.5904000000
F	  51.6234000000	   9.1294800000	  49.3872000000
F	  53.3716000000	  10.2881000000	  49.2088000000
N	  52.6815000000	   0.5958702471	  47.9033000000
S	  54.1731000000	   0.4962702471	  48.3989000000
O	  54.5704000000	   1.2329400000	  49.5605000000
O	  54.7494000000	  -0.8117297529	  48.1579000000
C	  54.9182000000	   1.5768000000	  47.0959000000
F	  56.2548000000	   1.4622700000	  47.0381000000
F	  54.6261000000	   2.8093900000	  47.2485000000
F	  54.5215000000	   1.2728300000	  45.9141000000
S	  51.4520000000	   0.8385702471	  48.8836000000
O	  50.4726000000	   1.6813500000	  48.2663000000
O	  51.8414000000	   1.0039300000	  50.2656000000
C	  50.6435000000	  -0.8572297529	  48.8672000000
F	  50.4943000000	  -1.2404297529	  47.5844000000
F	  51.3457000000	  -1.7355297529	  49.5106000000
F	  49.4603000000	  -0.8266297529	  49.4981000000
