61

Li	  27.0536000000	  22.7830000000	  10.2007000000
P	  24.3133000000	  24.6462000000	  10.0604000000
O	  23.5465000000	  24.1391000000	  11.3840000000
O	  24.2314000000	  26.2516000000	  10.2732000000
O	  23.2316000000	  24.4045000000	   8.8877200000
O	  25.6022000000	  24.0546000000	   9.8564600000
C	  23.9877000000	  23.1863000000	  12.2810000000
C	  24.9598000000	  26.9290000000	  11.2992000000
C	  23.2639000000	  23.2042000000	   8.1021100000
C	  23.0349000000	  23.2518000000	  13.4411000000
C	  24.0523000000	  27.3505000000	  12.4269000000
C	  22.5610000000	  22.0807000000	   8.7622100000
H	  23.8099000000	  22.2096000000	  11.7801000000
H	  25.0232000000	  23.3025000000	  12.5163000000
H	  25.8112000000	  26.3828000000	  11.6971000000
H	  25.3382000000	  27.8444000000	  10.8663000000
H	  22.8847000000	  23.4340000000	   7.1158800000
H	  24.3174000000	  22.8581000000	   7.9749400000
H	  21.9929000000	  22.7986000000	  13.3267000000
H	  23.3886000000	  22.7163000000	  14.3796000000
H	  22.8067000000	  24.2984000000	  13.6972000000
H	  23.5851000000	  26.4699000000	  12.9278000000
H	  24.7265000000	  27.8784000000	  13.0981000000
H	  23.2721000000	  27.9972000000	  12.1789000000
H	  21.4593000000	  22.1526000000	   8.6719000000
H	  22.7944000000	  21.1238000000	   8.4014500000
H	  22.8406000000	  22.2143000000	   9.8339900000
P	  27.5137000000	  21.0354000000	  12.8981000000
O	  26.7841000000	  19.5936000000	  12.9348000000
O	  29.1005000000	  20.6590000000	  12.8441000000
O	  27.3009000000	  21.5657000000	  14.4083000000
O	  27.1737000000	  21.9833000000	  11.7997000000
C	  25.3351000000	  19.5509000000	  12.8207000000
C	  29.5548000000	  19.8193000000	  11.7610000000
C	  27.8102000000	  22.8246000000	  14.7146000000
C	  24.8785000000	  19.4655000000	  11.3374000000
C	  29.2575000000	  18.3689000000	  11.8435000000
C	  27.0013000000	  24.0890000000	  14.3231000000
H	  25.0994000000	  18.6580000000	  13.3614000000
H	  24.7993000000	  20.2988000000	  13.3314000000
H	  29.1417000000	  20.2180000000	  10.8212000000
H	  30.6099000000	  19.9927000000	  11.9264000000
H	  27.9925000000	  22.8130000000	  15.7930000000
H	  28.8050000000	  22.7876000000	  14.3181000000
H	  23.8150000000	  19.1500000000	  11.3790000000
H	  24.9192000000	  20.4360000000	  10.8076000000
H	  25.4559000000	  18.7097000000	  10.7605000000
H	  29.5959000000	  17.7683000000	  10.9382000000
H	  29.6093000000	  17.8947000000	  12.7495000000
H	  28.1412000000	  18.1143000000	  11.8187000000
H	  26.9167000000	  24.1462000000	  13.2382000000
H	  26.0017000000	  24.0547000000	  14.6959000000
H	  27.4047000000	  24.9570000000	  14.8444000000
S	  31.2605000000	  23.4866000000	   1.5301500000
S	  30.9041000000	  24.4649000000	   3.3605500000
S	  29.2199000000	  23.8687000000	   4.3662100000
S	  28.5799000000	  24.3975000000	   9.1093100000
S	  28.7701000000	  22.3305000000	   8.9336700000
S	  26.8584000000	  21.3907000000	   8.7190000000
S	  29.7053000000	  25.3255000000	   7.5368800000
S	  28.5775000000	  25.3256000000	   5.8022500000
