43

Li	   3.1960900000	  43.8921000000	  16.3536000000
P	   5.7829300000	  45.7949000000	  16.8145000000
O	   5.8131600000	  47.3837000000	  17.1561000000
O	   6.9324100000	  45.3183000000	  17.8536000000
O	   6.4867100000	  45.7212000000	  15.3503000000
O	   4.5212300000	  44.9880000000	  16.9125000000
C	   5.7203500000	  48.3560000000	  16.1338000000
C	   6.7304400000	  45.2781000000	  19.2233000000
C	   7.1176600000	  44.4989000000	  14.8992000000
C	   7.0768600000	  48.8649000000	  15.7419000000
C	   6.0079000000	  43.9850000000	  19.6684000000
C	   8.6172500000	  44.4816000000	  15.1094000000
H	   4.9838200000	  47.9978000000	  15.4065000000
H	   5.1382900000	  49.2058000000	  16.5727000000
H	   7.7286000000	  45.3803000000	  19.6229000000
H	   6.1089100000	  46.1033000000	  19.5873000000
H	   6.5685200000	  43.5803000000	  15.2107000000
H	   6.8602000000	  44.6317000000	  13.8604000000
H	   7.6511600000	  49.5685000000	  16.4654000000
H	   7.6853800000	  48.0449000000	  15.2779000000
H	   6.7870400000	  49.4204000000	  14.8938000000
H	   6.1118600000	  43.9212000000	  20.7515000000
H	   4.8802500000	  43.9080000000	  19.4718000000
H	   6.4796400000	  43.0601000000	  19.2781000000
H	   9.0572900000	  43.4689000000	  15.0598000000
H	   9.1509600000	  45.1259000000	  14.4092000000
H	   8.8560300000	  44.8957000000	  16.0576000000
S	   1.1547500000	  43.7973000000	  16.9888000000
S	   1.5663200000	  42.3129000000	  18.5468000000
S	   1.6573300000	  43.0510000000	  20.4526000000
S	  -0.8640297529	  45.5476000000	  23.2415000000
S	   0.7339702471	  46.6896000000	  22.5682000000
S	   2.6143100000	  45.7137000000	  22.9211000000
S	  -1.3467297529	  44.1612000000	  21.8304000000
S	   0.0479702471	  42.5920000000	  21.7815000000
S	   3.5647700000	  42.7722000000	  14.6432000000
S	   3.3955100000	  40.9355000000	  15.7300000000
S	   4.5788400000	  40.8261000000	  17.5804000000
S	   6.1959000000	  36.4513000000	  16.3958000000
S	   6.8770200000	  34.5033000000	  17.0152000000
S	   5.2086000000	  33.2731000000	  16.9907000000
S	   6.1808100000	  37.8310000000	  18.0408000000
S	   6.4451100000	  39.7618000000	  17.3188000000
