27

Li	   5.0816000000	  41.3335000000	  14.7598000000
P	   7.3812700000	  43.1330000000	  16.4008000000
O	   6.9153100000	  44.3452000000	  17.3360000000
O	   8.1004900000	  42.1609000000	  17.4831000000
O	   8.6839200000	  43.7540000000	  15.6285000000
O	   6.3088800000	  42.4758000000	  15.5938000000
C	   6.4115700000	  45.5413000000	  16.7996000000
C	   7.4908300000	  41.3633000000	  18.5873000000
C	   9.5208700000	  42.8344000000	  14.9155000000
C	   4.9649300000	  45.2087000000	  16.3048000000
C	   6.9820100000	  42.1804000000	  19.7079000000
C	   8.9376800000	  42.2990000000	  13.5843000000
H	   6.3719300000	  46.3530000000	  17.5156000000
H	   6.8885600000	  46.0503000000	  15.9288000000
H	   6.6754400000	  40.8097000000	  18.1681000000
H	   8.2072700000	  40.5943000000	  18.9123000000
H	  10.4159000000	  43.4342000000	  14.6743000000
H	   9.9088100000	  42.0599000000	  15.5922000000
H	   4.3951700000	  46.1336000000	  16.2375000000
H	   4.9665600000	  44.8091000000	  15.2845000000
H	   4.5439800000	  44.4648000000	  16.9472000000
H	   6.8871500000	  41.4101000000	  20.4943000000
H	   7.4791800000	  43.0027000000	  20.1542000000
H	   6.0162900000	  42.5651000000	  19.3983000000
H	   8.6854200000	  43.1182000000	  12.9474000000
H	   9.7918200000	  41.7271000000	  13.2477000000
H	   8.2187500000	  41.5526000000	  13.7278000000
