42

Li	  33.9303000000	  32.4122000000	  21.8619000000
O	  35.6256000000	  32.6382000000	  22.9358000000
O	  37.3867000000	  33.6664000000	  24.1718000000
C	  35.9444000000	  31.7602000000	  24.0312000000
C	  37.3247000000	  32.2692000000	  24.6023000000
C	  36.5828000000	  33.6423000000	  22.9897000000
H	  35.1373000000	  31.8170000000	  24.7738000000
H	  35.9882000000	  30.7089000000	  23.7264000000
H	  37.1639000000	  32.1281000000	  25.6498000000
H	  38.0760000000	  31.6271000000	  24.1002000000
H	  37.2445000000	  33.4177000000	  22.1816000000
H	  35.9873000000	  34.5240000000	  22.7757000000
O	  31.1778000000	  34.1030000000	  24.3826000000
O	  32.6698000000	  33.3021000000	  22.9900000000
C	  30.4134000000	  33.8582000000	  23.2002000000
C	  31.4544000000	  33.2520000000	  22.2777000000
C	  32.4749000000	  34.2781000000	  23.9371000000
H	  29.5267000000	  33.2587000000	  23.3279000000
H	  29.9264000000	  34.7959000000	  22.8898000000
H	  31.2274000000	  32.2257000000	  21.9086000000
H	  31.3822000000	  33.8245000000	  21.3692000000
H	  32.6029000000	  35.2323000000	  23.4169000000
H	  33.2079000000	  34.1155000000	  24.7401000000
O	  32.7199000000	  29.2699000000	  20.3046000000
O	  33.6014000000	  30.5547000000	  21.9666000000
C	  32.0179000000	  28.9261000000	  21.4627000000
C	  32.7912000000	  29.6116000000	  22.6292000000
C	  33.9129000000	  29.9373000000	  20.7287000000
H	  30.9705000000	  29.2406000000	  21.5084000000
H	  32.0578000000	  27.9011000000	  21.6974000000
H	  32.1314000000	  30.1465000000	  23.2525000000
H	  33.3501000000	  28.9540000000	  23.2336000000
H	  34.6161000000	  29.1700000000	  20.9248000000
H	  34.3094000000	  30.5064000000	  19.9126000000
S	  34.0986000000	  33.5052000000	  20.1518000000
S	  33.9209000000	  35.5773000000	  20.2122000000
S	  35.4994000000	  36.4928000000	  21.2030000000
S	  38.0672000000	  40.3711000000	  20.2274000000
S	  39.5792000000	  41.0278000000	  18.8837000000
S	  41.1758000000	  42.0030000000	  19.7626000000
S	  38.2633000000	  38.4599000000	  20.8435000000
S	  36.9050000000	  37.1989000000	  19.8665000000
