64

Li	  41.8753000000	  52.3117000000	  40.7456000000
O	  42.0690000000	  55.9285000000	  40.1959000000
O	  41.3409000000	  53.8540000000	  39.7424000000
C	  41.5036000000	  56.1408000000	  38.8973000000
C	  41.1620000000	  54.6385000000	  38.5388000000
C	  41.3286000000	  54.8634000000	  40.7189000000
H	  40.6048000000	  56.7898000000	  38.8934000000
H	  42.1150000000	  56.7090000000	  38.1643000000
H	  40.1025000000	  54.4296000000	  38.1885000000
H	  41.6834000000	  54.1695000000	  37.7338000000
H	  41.6469000000	  54.6180000000	  41.7363000000
H	  40.2586000000	  55.0448000000	  40.7472000000
O	  41.1669000000	  51.8897000000	  42.2358000000
O	  41.4470000000	  50.8637000000	  44.1689000000
C	  40.5641000000	  50.6114000000	  42.0448000000
C	  41.1415000000	  49.8256000000	  43.2089000000
C	  41.0753000000	  52.0624000000	  43.6020000000
H	  39.4725000000	  50.6884000000	  42.1173000000
H	  40.8009000000	  50.0961000000	  41.1159000000
H	  40.4103000000	  49.1287000000	  43.6790000000
H	  42.0189000000	  49.3145000000	  42.9168000000
H	  41.7161000000	  52.8398000000	  43.9709000000
H	  40.0455000000	  52.1549000000	  43.8350000000
P	  45.1449000000	  52.9890000000	  41.4584000000
O	  45.6639000000	  54.4407000000	  41.8670000000
O	  45.7648000000	  52.0407000000	  42.6137000000
O	  46.0428000000	  52.5678000000	  40.1617000000
O	  43.6707000000	  52.7900000000	  41.2816000000
C	  44.6923000000	  55.5112000000	  41.9382000000
C	  45.0970000000	  51.9445000000	  43.8885000000
C	  45.6980000000	  53.1876000000	  38.9049000000
C	  43.7806000000	  55.5042000000	  43.2003000000
C	  45.9398000000	  52.7023000000	  44.9753000000
C	  46.3838000000	  52.2840000000	  37.7567000000
H	  45.2407000000	  56.4787000000	  41.9497000000
H	  44.0544000000	  55.5455000000	  41.0599000000
H	  44.0290000000	  52.3004000000	  43.8712000000
H	  44.9809000000	  50.8792000000	  44.1236000000
H	  44.5541000000	  53.3184000000	  38.8379000000
H	  45.9513000000	  54.2149000000	  38.8041000000
H	  43.1663000000	  54.5963000000	  43.1382000000
H	  44.2317000000	  55.4746000000	  44.2122000000
H	  42.9611000000	  56.2369000000	  43.0322000000
H	  46.9249000000	  52.3128000000	  44.9722000000
H	  46.1054000000	  53.7981000000	  44.7579000000
H	  45.5833000000	  52.5376000000	  45.9447000000
H	  45.9041000000	  51.3097000000	  37.6422000000
H	  46.3775000000	  52.7989000000	  36.8176000000
H	  47.4502000000	  52.2301000000	  37.9870000000
N	  40.5289000000	  51.0961000000	  37.4605000000
S	  39.3056000000	  51.0553000000	  38.3672000000
O	  38.9289000000	  49.8007000000	  38.8575000000
O	  39.1999000000	  52.1323000000	  39.2716000000
C	  38.0100000000	  51.4958000000	  37.1161000000
F	  36.8320000000	  51.7013000000	  37.6185000000
F	  38.0072000000	  50.5698000000	  36.1499000000
F	  38.2845000000	  52.6618000000	  36.5814000000
S	  42.0438000000	  51.0852000000	  37.8195000000
O	  42.3373000000	  51.3643000000	  39.1808000000
O	  42.8830000000	  51.6829000000	  36.8488000000
C	  42.3332000000	  49.2849000000	  37.7206000000
F	  41.7708000000	  48.4555000000	  38.5275000000
F	  41.9375000000	  48.8013000000	  36.5573000000
F	  43.6559000000	  49.0068000000	  37.6582000000
