39

Li	  19.0288000000	   9.6224800000	  37.0643000000
O	  17.9118000000	   6.5497000000	  38.7017000000
O	  18.9910000000	   8.3846900000	  38.3094000000
C	  18.3078000000	   6.9752400000	  39.9737000000
C	  18.9972000000	   8.3204600000	  39.7112000000
C	  18.7451000000	   7.1305500000	  37.8226000000
H	  17.5094000000	   7.1381400000	  40.6926000000
H	  19.0398000000	   6.3086800000	  40.3684000000
H	  18.4365000000	   9.1220900000	  40.1588000000
H	  20.0060000000	   8.2629200000	  40.0454000000
H	  19.6311000000	   6.5907400000	  37.6338000000
H	  18.2222000000	   7.1950900000	  36.9103000000
O	  18.4119000000	   9.1780100000	  35.3214000000
N	  18.6759000000	   9.8222600000	  33.2505000000
C	  18.9297000000	   8.9950000000	  34.2473000000
C	  17.7860000000	  10.9580000000	  33.1984000000
C	  19.9232000000	   7.8652100000	  33.9774000000
H	  19.2015000000	   9.6849300000	  32.3697000000
H	  16.7586000000	  10.5679000000	  33.1361000000
H	  17.7898000000	  11.3357000000	  34.2295000000
H	  18.1128000000	  11.6652000000	  32.5021000000
H	  20.3443000000	   7.7436700000	  32.9875000000
H	  20.8007000000	   7.9263500000	  34.6539000000
H	  19.4026000000	   6.9567800000	  34.2158000000
N	  23.1660000000	   9.8657300000	  36.2488000000
S	  21.9763000000	  10.8669000000	  36.3701000000
O	  21.6013000000	  11.4137000000	  35.1283000000
O	  20.8894000000	  10.3644000000	  37.1955000000
C	  22.7678000000	  12.2347000000	  37.2674000000
F	  23.3127000000	  11.8277000000	  38.4082000000
F	  21.8356000000	  13.1228000000	  37.5877000000
F	  23.6614000000	  12.8317000000	  36.5810000000
S	  23.3111000000	   8.4146200000	  36.8602000000
O	  22.1304000000	   7.5989400000	  36.6730000000
O	  23.9888000000	   8.5059100000	  38.0934000000
C	  24.5757000000	   7.6604400000	  35.7513000000
F	  24.2646000000	   7.6745700000	  34.4695000000
F	  25.7801000000	   8.1987400000	  35.8998000000
F	  24.8809000000	   6.3642300000	  36.0563000000
