61

Li	  11.6075000000	  52.4020000000	  10.9328000000
O	  12.7939000000	  52.6946000000	  12.2259000000
N	  15.0857000000	  53.1172000000	  12.1548000000
C	  13.8295000000	  53.2677000000	  12.6558000000
C	  15.4283000000	  52.2377000000	  11.0334000000
C	  13.6541000000	  54.2434000000	  13.8222000000
H	  15.8007000000	  53.5356000000	  12.7040000000
H	  14.7275000000	  52.2534000000	  10.1604000000
H	  16.3869000000	  52.5456000000	  10.6343000000
H	  15.4788000000	  51.1772000000	  11.3219000000
H	  14.2210000000	  55.1970000000	  13.7676000000
H	  12.6196000000	  54.6407000000	  13.6981000000
H	  13.7549000000	  53.8038000000	  14.7660000000
O	  12.0510000000	  50.8752000000	  10.0492000000
N	  12.6805000000	  49.0827000000	   8.9010700000
C	  11.9423000000	  50.1896000000	   9.0261900000
C	  13.8062000000	  48.6262000000	   9.7528000000
C	  11.0738000000	  50.7133000000	   7.9339500000
H	  12.6295000000	  48.5396000000	   8.0717600000
H	  13.4401000000	  48.4933000000	  10.6788000000
H	  14.2632000000	  47.6794000000	   9.4623000000
H	  14.5410000000	  49.4054000000	   9.6705200000
H	  10.9979000000	  51.7788000000	   7.9560500000
H	  11.4453000000	  50.3163000000	   7.0022600000
H	  10.0464000000	  50.3054000000	   8.0178600000
O	   9.8665600000	  49.0090000000	  14.4304000000
N	  10.3105000000	  51.0796000000	  13.6258000000
C	   9.9310700000	  49.8013000000	  13.5027000000
C	  10.7380000000	  51.7537000000	  14.8695000000
C	   9.6062100000	  49.3426000000	  12.0902000000
H	  10.3584000000	  51.6667000000	  12.8323000000
H	  11.7124000000	  51.3267000000	  15.0280000000
H	  10.9395000000	  52.8178000000	  14.8856000000
H	  10.0559000000	  51.4818000000	  15.6504000000
H	   8.9383700000	  50.0019000000	  11.6733000000
H	  10.4998000000	  49.2832000000	  11.4081000000
H	   9.1756100000	  48.3609000000	  12.0840000000
O	   9.8533800000	  53.0291000000	  11.4157000000
N	   7.8397600000	  52.9145000000	  10.4744000000
C	   8.6348000000	  53.2832000000	  11.4387000000
C	   8.2402000000	  52.3996000000	   9.2206200000
C	   8.0701200000	  54.1791000000	  12.4324000000
H	   6.9203300000	  53.1087000000	  10.5314000000
H	   9.1207500000	  52.9741000000	   8.8471100000
H	   8.3452500000	  51.3094000000	   9.1186800000
H	   7.5052800000	  52.7038000000	   8.5167100000
H	   8.6520900000	  54.2525000000	  13.3321000000
H	   8.2228700000	  55.2409000000	  12.0043000000
H	   7.0549100000	  53.9774000000	  12.7540000000
O	  12.0947000000	  53.8642000000	   9.4776900000
N	  11.7402000000	  56.0852000000	   9.7949600000
C	  12.0870000000	  55.0301000000	   9.0306500000
C	  11.2825000000	  56.0279000000	  11.1772000000
C	  12.6948000000	  55.3395000000	   7.6588100000
H	  12.0389000000	  56.9752000000	   9.4663700000
H	  12.0743000000	  56.3630000000	  11.8287000000
H	  10.2581000000	  56.5669000000	  11.1915000000
H	  11.1428000000	  54.9605000000	  11.4287000000
H	  13.7438000000	  55.6467000000	   7.7616600000
H	  12.4975000000	  54.3938000000	   7.0695800000
H	  12.1741000000	  56.1630000000	   7.1971000000
