40

Li	  46.1774000000	  22.1697000000	  42.6959000000
O	  47.2188000000	  23.2620000000	  41.5797000000
N	  48.6477000000	  25.0341000000	  41.6949000000
C	  47.8594000000	  24.1710000000	  40.9889000000
C	  48.7865000000	  25.1183000000	  43.1244000000
C	  47.9697000000	  24.1799000000	  39.5336000000
H	  49.0030000000	  25.7884000000	  41.0813000000
H	  47.9680000000	  25.0305000000	  43.7771000000
H	  49.4925000000	  24.3835000000	  43.5023000000
H	  49.2548000000	  26.1168000000	  43.2494000000
H	  47.1169000000	  23.5851000000	  39.1354000000
H	  48.0229000000	  25.2049000000	  39.1517000000
H	  48.8410000000	  23.6812000000	  39.0966000000
O	  44.8508000000	  20.7165000000	  43.0940000000
N	  44.4952000000	  19.1639000000	  44.6864000000
C	  44.0799000000	  20.1554000000	  43.8383000000
C	  45.8270000000	  18.6922000000	  44.8234000000
C	  42.5865000000	  20.4902000000	  43.8810000000
H	  43.8786000000	  18.4940000000	  45.0919000000
H	  46.0300000000	  17.9665000000	  45.5569000000
H	  46.2933000000	  18.2916000000	  43.8254000000
H	  46.4856000000	  19.4884000000	  45.0914000000
H	  42.2073000000	  19.9894000000	  42.9870000000
H	  42.1323000000	  20.0235000000	  44.7647000000
H	  42.4312000000	  21.5332000000	  43.6806000000
N	  43.6043000000	  24.7218000000	  42.8438000000
S	  43.4767000000	  24.0390000000	  41.4557000000
O	  44.5691000000	  23.1234000000	  41.1230000000
O	  42.1345000000	  23.6628000000	  41.0832000000
C	  43.7806000000	  25.4044000000	  40.3158000000
F	  43.6061000000	  24.9192000000	  39.0828000000
F	  45.0639000000	  25.8854000000	  40.2357000000
F	  43.0238000000	  26.4703000000	  40.5695000000
S	  44.6131000000	  24.4141000000	  44.0097000000
O	  45.4032000000	  25.6290000000	  44.3026000000
O	  45.3537000000	  23.2366000000	  43.9195000000
C	  43.4787000000	  24.1731000000	  45.4003000000
F	  42.3961000000	  25.0070000000	  45.3010000000
F	  43.0447000000	  22.9032000000	  45.3950000000
F	  44.0535000000	  24.4225000000	  46.5802000000
