33

Li	  46.2766000000	  40.0211000000	  49.7543000000
O	  45.2827000000	  40.9194000000	  51.1046000000
N	  43.9618000000	  41.7929000000	  52.6881000000
C	  44.1794000000	  41.1435000000	  51.5720000000
C	  44.9919000000	  42.4347000000	  53.4802000000
C	  42.8981000000	  40.5525000000	  50.8807000000
H	  42.9913000000	  41.7227000000	  53.0184000000
H	  45.0648000000	  41.9960000000	  54.4908000000
H	  45.9291000000	  42.2888000000	  52.9778000000
H	  44.8441000000	  43.4936000000	  53.5963000000
H	  42.9209000000	  40.9779000000	  49.8570000000
H	  42.9127000000	  39.4551000000	  50.6898000000
H	  41.8492000000	  40.8270000000	  51.3347000000
O	  45.2291000000	  38.5498000000	  49.1338000000
N	  43.7283000000	  37.3473000000	  47.9631000000
C	  44.8394000000	  37.4703000000	  48.7063000000
C	  42.9907000000	  38.5809000000	  47.5146000000
C	  45.6385000000	  36.2712000000	  49.0236000000
H	  43.5225000000	  36.4240000000	  47.4657000000
H	  42.0582000000	  38.7849000000	  48.0901000000
H	  43.6243000000	  39.5127000000	  47.3968000000
H	  42.6305000000	  38.3716000000	  46.4648000000
H	  45.6566000000	  35.6087000000	  48.2108000000
H	  46.6844000000	  36.4546000000	  49.3797000000
H	  45.2001000000	  35.6966000000	  49.7981000000
S	  51.0756000000	  39.9853000000	  57.4630000000
S	  50.1694000000	  41.6553000000	  56.4598000000
S	  48.3970000000	  41.2608000000	  55.5034000000
S	  48.0509000000	  39.3407000000	  50.9632000000
S	  48.4869000000	  39.8762000000	  49.0336000000
S	  46.9894000000	  41.1041000000	  48.0959000000
S	  49.4621000000	  40.1731000000	  52.2669000000
S	  48.5829000000	  41.7780000000	  53.4841000000
