48

Li	  41.7393000000	  32.0231000000	   5.1088100000
O	  41.2569000000	  33.8136000000	   4.7693000000
N	  39.5348000000	  35.2129000000	   4.1224900000
C	  40.7781000000	  34.9140000000	   4.5475300000
C	  38.5588000000	  34.2644000000	   3.6621100000
C	  41.6742000000	  36.1268000000	   4.6137100000
H	  39.3285000000	  36.1403000000	   3.7943200000
H	  38.2605000000	  34.4991000000	   2.6343100000
H	  38.9115000000	  33.2611000000	   3.7188000000
H	  37.6250000000	  34.4547000000	   4.3425200000
H	  42.6297000000	  35.9428000000	   5.0751300000
H	  41.9470000000	  36.5685000000	   3.6246800000
H	  41.0322000000	  36.8593000000	   5.1436300000
O	  40.9395000000	  30.3282000000	   4.4302000000
N	  41.8767000000	  28.2833000000	   4.1983200000
C	  40.8584000000	  29.1504000000	   4.0080100000
C	  43.0024000000	  28.6267000000	   4.9616200000
C	  39.6529000000	  28.8473000000	   3.1844200000
H	  41.7542000000	  27.3524000000	   3.8784200000
H	  42.7247000000	  29.1497000000	   5.8878000000
H	  43.4987000000	  27.7493000000	   5.3257900000
H	  43.6864000000	  29.1743000000	   4.4013500000
H	  39.8676000000	  29.3071000000	   2.2202300000
H	  39.6100000000	  27.8271000000	   2.9270100000
H	  38.7829000000	  29.2455000000	   3.7449800000
N	  45.5735000000	  30.7696000000	   3.3468600000
S	  46.2700000000	  29.7554000000	   2.3791700000
O	  45.4897000000	  28.5697000000	   2.0826600000
O	  47.0689000000	  30.3816000000	   1.3696800000
C	  47.6094000000	  29.1097000000	   3.5300200000
F	  48.3907000000	  28.2551000000	   2.9854700000
F	  47.0772000000	  28.3923000000	   4.5711800000
F	  48.3695000000	  30.0860000000	   4.0683200000
S	  44.2226000000	  31.5882000000	   3.0553700000
O	  43.4134000000	  31.7616000000	   4.2199400000
O	  43.5837000000	  31.2445000000	   1.7925000000
C	  44.9056000000	  33.2623000000	   2.8141800000
F	  44.0644000000	  34.2162000000	   2.4274100000
F	  45.4704000000	  33.7220000000	   3.8868300000
F	  45.8473000000	  33.1328000000	   1.9282800000
S	  33.6974000000	  32.3426000000	  13.9013000000
S	  33.4004000000	  33.3445000000	  11.9492000000
S	  34.8308000000	  33.0437000000	  10.4514000000
S	  39.1201000000	  33.6989000000	   8.3506400000
S	  41.1982000000	  33.2239000000	   8.3629500000
S	  41.6759000000	  31.3980000000	   7.2968200000
S	  38.2945000000	  33.7572000000	  10.3211000000
S	  36.3247000000	  34.4685000000	  10.4622000000
