45

Li	  27.6105000000	  29.8397000000	  10.0790000000
O	  27.3917000000	  28.4560000000	   8.8467700000
N	  27.5475000000	  26.3393000000	   8.4075400000
C	  27.4410000000	  27.5829000000	   8.0330200000
C	  27.3627000000	  25.8260000000	   9.7766400000
C	  27.4876000000	  27.8425000000	   6.5281500000
H	  27.7214000000	  25.6935000000	   7.6564500000
H	  26.3264000000	  25.5614000000	   9.9494800000
H	  28.0096000000	  24.9985000000	   9.9851100000
H	  27.5775000000	  26.5413000000	  10.5798000000
H	  28.4094000000	  28.2899000000	   6.3012000000
H	  27.1858000000	  27.0269000000	   5.9241400000
H	  26.7095000000	  28.5499000000	   6.2601200000
O	  28.3385000000	  31.2210000000	   8.9328100000
N	  28.5863000000	  32.9736000000	   7.4810700000
C	  28.8342000000	  32.2687000000	   8.6142000000
C	  27.6566000000	  32.5416000000	   6.4565200000
C	  29.9044000000	  32.8909000000	   9.5461000000
H	  29.1338000000	  33.8421000000	   7.2611800000
H	  26.7222000000	  33.1352000000	   6.7069000000
H	  28.1341000000	  32.9786000000	   5.5833400000
H	  27.4428000000	  31.4233000000	   6.2276600000
H	  30.7995000000	  33.2036000000	   8.9645800000
H	  29.4802000000	  33.8093000000	  10.0818000000
H	  30.2370000000	  32.1575000000	  10.2891000000
O	  29.1065000000	  29.1256000000	  11.3312000000
N	  30.9578000000	  28.2865000000	  12.3115000000
C	  30.1182000000	  29.2870000000	  12.0196000000
C	  30.8857000000	  26.9437000000	  11.7070000000
C	  30.4186000000	  30.6723000000	  12.6261000000
H	  31.7154000000	  28.3977000000	  12.9547000000
H	  31.3902000000	  26.9788000000	  10.7981000000
H	  31.3092000000	  26.1946000000	  12.3691000000
H	  29.8371000000	  26.7241000000	  11.4565000000
H	  30.7175000000	  30.6630000000	  13.6912000000
H	  31.2804000000	  31.0575000000	  12.0231000000
H	  29.5880000000	  31.3755000000	  12.4834000000
S	  26.6045000000	  31.3966000000	  11.3695000000
S	  25.4969000000	  29.6196000000	  11.3360000000
S	  24.5928000000	  28.9107000000	  13.1481000000
S	  19.3943000000	  28.9358000000	  14.2337000000
S	  17.9482000000	  27.6084000000	  13.5414000000
S	  16.3684000000	  27.3198000000	  14.8634000000
S	  21.2766000000	  28.2796000000	  13.7590000000
S	  22.7328000000	  29.7430000000	  13.3993000000
