39

Li	   6.9800600000	  24.1598000000	   4.4581800000
O	   8.8262500000	  24.0984000000	   4.0799100000
O	  10.7904000000	  25.0143000000	   4.4272000000
C	   9.1332400000	  24.6205000000	   2.7944600000
C	  10.4042000000	  25.4781000000	   3.1649000000
C	  10.0700000000	  23.8967000000	   4.6233700000
H	   9.3150400000	  23.8322000000	   2.0061200000
H	   8.3169900000	  25.2107000000	   2.4389600000
H	  11.0148000000	  25.2450000000	   2.3137900000
H	  10.1583000000	  26.6195000000	   3.2505000000
H	  10.0644000000	  23.6261000000	   5.7110800000
H	  10.5289000000	  23.0476000000	   4.1749100000
O	   3.8270800000	  22.6111000000	   2.6301900000
O	   5.9543400000	  23.1851000000	   3.2570300000
C	   4.8351400000	  22.6497000000	   1.5779900000
C	   6.1156000000	  22.2252000000	   2.2796100000
C	   4.6947100000	  22.9206000000	   3.7563400000
H	   4.6918100000	  21.9046000000	   0.7950323380
H	   4.9529700000	  23.6788000000	   1.1777000000
H	   6.0982100000	  21.2026000000	   2.6133400000
H	   7.0505400000	  22.3229000000	   1.7069800000
H	   4.3548800000	  23.8107000000	   4.3338200000
H	   4.7538600000	  22.0007000000	   4.3922800000
S	  14.2951000000	  14.8446000000	   6.7696400000
S	  13.8906000000	  16.2270000000	   8.3169900000
S	  13.2705000000	  18.1191000000	   7.6020000000
S	   9.3463900000	  20.7969000000	   6.5501400000
S	   7.3617200000	  21.4125000000	   6.0607100000
S	   6.7893100000	  23.4278000000	   6.4981900000
S	   9.7684300000	  18.8946000000	   7.3317400000
S	  11.4625000000	  18.9349000000	   8.5306000000
S	   6.3629500000	  26.0985000000	   4.3039700000
S	   4.9580900000	  27.6545000000	   4.9094900000
S	   5.3845100000	  28.2932000000	   6.8133400000
S	   3.4849000000	  30.3367000000	  10.5846000000
S	   3.5533600000	  28.5734000000	  11.5942000000
S	   3.7607500000	  29.0527000000	  13.6702000000
S	   2.8222500000	  29.9424000000	   8.5872200000
S	   4.3384200000	  29.9851000000	   7.2146300000
