46

Li	  17.0619000000	   6.7656300000	  23.8177000000
O	  15.5960000000	   6.4608100000	  25.1463000000
O	  13.3563000000	   6.1849000000	  25.2763000000
C	  15.1422000000	   7.1568300000	  26.2888000000
C	  13.7712000000	   6.5174900000	  26.5353000000
C	  14.4839000000	   5.6112100000	  24.7338000000
H	  15.7514000000	   7.0732300000	  27.2239000000
H	  15.1057000000	   8.1882400000	  26.0500000000
H	  13.7711000000	   5.6368000000	  27.1529000000
H	  13.0786000000	   7.1918500000	  26.9947000000
H	  14.4322000000	   5.5228100000	  23.6456000000
H	  14.6026000000	   4.6441700000	  25.1178000000
O	  19.2055000000	   3.6345600000	  24.8458000000
O	  17.7701000000	   5.2504800000	  24.1641000000
C	  19.8661000000	   4.5129200000	  23.9322000000
C	  18.7362000000	   5.0299800000	  23.0938000000
C	  17.9609000000	   4.2173600000	  25.0396000000
H	  20.4029000000	   5.2759700000	  24.4828000000
H	  20.7230000000	   4.0940600000	  23.3769000000
H	  18.9781000000	   6.0379300000	  22.7016000000
H	  18.3350000000	   4.2861200000	  22.3661000000
H	  17.1306000000	   3.4957600000	  25.0820000000
H	  18.0253000000	   4.7316500000	  26.0366000000
O	  18.3902000000	   8.0572100000	  24.5105000000
O	  18.8733000000	   9.8880200000	  25.7325000000
C	  18.7004000000	   9.0601200000	  23.5275000000
C	  19.1369000000	  10.2737000000	  24.3583000000
C	  18.9391000000	   8.5013100000	  25.7187000000
H	  19.5755000000	   8.8367800000	  22.9607000000
H	  17.9415000000	   9.2544400000	  22.7874000000
H	  20.1441000000	  10.4720000000	  24.1767000000
H	  18.7087000000	  11.1903000000	  23.9413000000
H	  18.3748000000	   8.0915700000	  26.5495000000
H	  19.9142000000	   8.1704100000	  25.7837000000
O	  16.3011000000	   6.9769200000	  22.1265000000
N	  14.8285000000	   8.6890700000	  21.9489000000
C	  15.4804000000	   7.5994600000	  21.4665000000
C	  14.8584000000	   9.1659900000	  23.2965000000
C	  15.1599000000	   7.1947200000	  20.0469000000
H	  14.3059000000	   9.1754400000	  21.2589000000
H	  14.1840000000	   9.8848400000	  23.6618000000
H	  14.6710000000	   8.3946600000	  24.0766000000
H	  15.8345000000	   9.5515100000	  23.4972000000
H	  14.2800000000	   7.5805400000	  19.6291000000
H	  15.8992000000	   7.5602800000	  19.3121000000
H	  15.1660000000	   6.1156500000	  19.9866000000
