33

Li	   3.1380100000	  36.5316000000	   5.2528300000
O	   3.5092600000	  35.9781000000	   6.9759400000
N	   3.2076800000	  34.6276000000	   8.7834800000
C	   3.1832100000	  35.7997000000	   8.1458700000
C	   3.3739400000	  33.4204000000	   7.9648800000
C	   2.8466800000	  36.9926000000	   9.0029400000
H	   3.1185000000	  34.6622000000	   9.7634000000
H	   4.1050500000	  33.5050000000	   7.1520700000
H	   3.6059200000	  32.6361000000	   8.6747900000
H	   2.3754700000	  33.1825000000	   7.4858000000
H	   3.6952900000	  37.3986000000	   9.4730900000
H	   2.4056800000	  37.7934000000	   8.3320200000
H	   2.1807000000	  36.7513000000	   9.8160100000
O	   1.6106900000	  37.7371000000	   5.3442000000
N	  -0.1769832442	  39.0430000000	   5.1634700000
C	   0.4322167558	  37.9596000000	   5.5808500000
C	   0.4972167558	  39.9885000000	   4.3920200000
C	  -0.3185832442	  37.0398000000	   6.5156800000
H	  -1.1598832442	  39.0558000000	   5.4002000000
H	   1.0703800000	  39.5205000000	   3.6133200000
H	  -0.1490832442	  40.7777000000	   3.9593000000
H	   1.3165100000	  40.4958000000	   4.8765900000
H	  -0.3878832442	  36.1267000000	   6.0487300000
H	   0.3416167558	  36.7790000000	   7.3458700000
H	  -1.2836832442	  37.3652000000	   6.9501400000
S	   0.7924167558	  26.3964000000	   6.5142200000
S	   1.0844300000	  28.0860000000	   5.2589700000
S	  -0.6302832442	  29.2919000000	   5.2159100000
S	   1.3492000000	  34.0390000000	   4.5613700000
S	   2.5198300000	  34.8419000000	   3.0912800000
S	   4.4187600000	  35.4867000000	   3.7007700000
S	   0.4894167558	  32.2395000000	   4.0218600000
S	  -0.2360832442	  31.2802000000	   5.6493200000
