52

Li	  49.8055000000	  45.7660000000	  34.7839000000
O	  50.1881000000	  47.4152000000	  33.9656000000
N	  52.0285000000	  48.5771000000	  34.2664000000
C	  50.6893000000	  48.5158000000	  34.0747000000
C	  53.0093000000	  47.5420000000	  34.1657000000
C	  49.8683000000	  49.7665000000	  33.9707000000
H	  52.4069000000	  49.5309000000	  34.2157000000
H	  53.8178000000	  48.0627000000	  33.6449000000
H	  53.3413000000	  47.2530000000	  35.1759000000
H	  52.6356000000	  46.6978000000	  33.4991000000
H	  49.2641000000	  49.6560000000	  33.0275000000
H	  49.2001000000	  49.7348000000	  34.7979000000
H	  50.4204000000	  50.6815000000	  33.9139000000
O	  51.3467000000	  44.6530000000	  33.8604000000
N	  51.8562000000	  42.4761000000	  34.4484000000
C	  52.1157000000	  43.6429000000	  33.8190000000
C	  50.7676000000	  42.1656000000	  35.3562000000
C	  53.4913000000	  43.8230000000	  33.0695000000
H	  52.5574000000	  41.7481000000	  34.3963000000
H	  50.6879000000	  42.9048000000	  36.0956000000
H	  49.7965000000	  42.1020000000	  34.8522000000
H	  50.7804000000	  41.2590000000	  35.9418000000
H	  54.3138000000	  43.6575000000	  33.7820000000
H	  53.6795000000	  43.2055000000	  32.2015000000
H	  53.4832000000	  44.8567000000	  32.7286000000
O	  48.1677000000	  45.4361000000	  34.0814000000
N	  46.5091000000	  46.6295000000	  35.1021000000
C	  47.0981000000	  46.0738000000	  34.0840000000
C	  47.2601000000	  46.8777000000	  36.2944000000
C	  46.3053000000	  46.1831000000	  32.8639000000
H	  45.5692000000	  47.0536000000	  35.0718000000
H	  48.2107000000	  47.3345000000	  36.1453000000
H	  46.7389000000	  47.6632000000	  36.8393000000
H	  47.3997000000	  46.0540000000	  36.9884000000
H	  45.9635000000	  47.1221000000	  32.5176000000
H	  46.8937000000	  45.8568000000	  32.0495000000
H	  45.5006000000	  45.3892000000	  32.8429000000
N	  50.8054000000	  46.5177000000	  38.9105000000
S	  49.6530000000	  47.2498000000	  39.6012000000
O	  49.4773000000	  48.6964000000	  39.2801000000
O	  48.5143000000	  46.4064000000	  39.8303000000
C	  50.2932000000	  47.3533000000	  41.3485000000
F	  51.5430000000	  47.7206000000	  41.3563000000
F	  50.2782000000	  46.2019000000	  41.9755000000
F	  49.6672000000	  48.1699000000	  42.1443000000
S	  50.7056000000	  45.3048000000	  37.9564000000
O	  50.5589000000	  45.8056000000	  36.5611000000
O	  49.8567000000	  44.2498000000	  38.3696000000
C	  52.3761000000	  44.5657000000	  38.0361000000
F	  52.5799000000	  43.5019000000	  37.2807000000
F	  53.3554000000	  45.4322000000	  37.7122000000
F	  52.6544000000	  44.2112000000	  39.2337000000
