59

Li	  57.4740000000	  28.7098000000	  22.4743000000
O	  59.4675832442	  28.3018000000	  22.0227000000
O	  61.4847632442	  27.4500000000	  21.4504000000
C	  60.3864532442	  29.0754000000	  22.6694000000
C	  61.7725432442	  28.5647000000	  22.2102000000
C	  60.1924432442	  27.6798000000	  20.9733000000
H	  60.1577332442	  30.1411000000	  22.3909000000
H	  60.2189832442	  28.9648000000	  23.7525000000
H	  62.3772732442	  29.3827000000	  21.7245000000
H	  62.3830732442	  28.2504000000	  23.0327000000
H	  59.6612032442	  26.8189000000	  20.6713000000
H	  60.1505232442	  28.2977000000	  20.0575000000
O	  58.4374000000	  30.0548000000	  17.1824000000
O	  57.8070000000	  28.1219000000	  18.1565000000
C	  58.0924000000	  30.3246000000	  18.4911000000
C	  57.2535000000	  29.1164000000	  19.0345000000
C	  57.9583000000	  28.7277000000	  16.9041000000
H	  58.9549000000	  30.6681000000	  19.1302000000
H	  57.4313000000	  31.1791000000	  18.5288000000
H	  57.5282000000	  28.9212000000	  20.1166000000
H	  56.1254000000	  29.3231000000	  18.9619000000
H	  57.0732000000	  28.6590000000	  16.2964000000
H	  58.7724000000	  28.1981000000	  16.3666000000
O	  57.3805000000	  28.9597000000	  24.2783000000
N	  55.7051000000	  30.0675000000	  25.2545000000
C	  57.0380000000	  29.8406000000	  25.1254000000
C	  54.6511000000	  29.2987000000	  24.5699000000
C	  58.1027000000	  30.6319000000	  25.9690000000
H	  55.3793000000	  30.7608000000	  25.9208000000
H	  54.4056000000	  29.8782000000	  23.7142000000
H	  54.8882000000	  28.2691000000	  24.3091000000
H	  53.7824000000	  29.3374000000	  25.2207000000
H	  57.7210000000	  31.5862000000	  26.3905000000
H	  58.4719000000	  29.9485000000	  26.7392000000
H	  58.8917000000	  30.8766000000	  25.2880000000
O	  57.4752000000	  30.7347000000	  21.8382000000
N	  56.5364000000	  32.6605000000	  21.3681000000
C	  57.6337000000	  31.9207000000	  21.7081000000
C	  55.1727000000	  32.1364000000	  21.0826000000
C	  58.9518000000	  32.5752000000	  22.0077000000
H	  56.8237000000	  33.6251000000	  21.3889000000
H	  55.1576000000	  31.6063000000	  20.1650000000
H	  54.7925000000	  31.4094000000	  21.8368000000
H	  54.3677000000	  32.8844000000	  21.0548000000
H	  59.4379532442	  32.1541000000	  22.8832000000
H	  59.3980132442	  32.3272000000	  21.0605000000
H	  58.8352000000	  33.6671000000	  22.0561000000
O	  56.0463000000	  27.3896000000	  21.8620000000
N	  53.9667000000	  27.1730000000	  21.0225000000
C	  55.1665000000	  26.7655000000	  21.3533000000
C	  53.6371000000	  28.5874000000	  21.1497000000
C	  55.5741000000	  25.4236000000	  20.7848000000
H	  53.4667000000	  26.5477000000	  20.4652000000
H	  53.0424000000	  28.9049000000	  20.3247000000
H	  53.1702000000	  28.7924000000	  22.0558000000
H	  54.5710000000	  29.2074000000	  21.2047000000
H	  55.3495000000	  24.6109000000	  21.4815000000
H	  55.1587000000	  25.1171000000	  19.7783000000
H	  56.7153000000	  25.3969000000	  20.7173000000
