36

Li	  25.7069000000	  21.6300000000	  11.0972000000
O	  26.0632000000	  21.0307000000	  12.8172000000
N	  25.7689000000	  20.3165000000	  15.0208000000
C	  25.9674000000	  20.1571000000	  13.7380000000
C	  25.4280000000	  21.5477000000	  15.6556000000
C	  26.0681000000	  18.6729000000	  13.3591000000
H	  25.7102000000	  19.5424000000	  15.7021000000
H	  24.7963000000	  22.1091000000	  15.0430000000
H	  24.9395000000	  21.2035000000	  16.6640000000
H	  26.3408000000	  22.1301000000	  15.9766000000
H	  26.8011000000	  18.4193000000	  12.5205000000
H	  26.1527000000	  18.0501000000	  14.2175000000
H	  25.0683000000	  18.4305000000	  13.0288000000
N	  23.3916000000	  18.1436000000	   9.5991600000
S	  24.7840000000	  18.7882000000	   9.6993700000
O	  24.7332000000	  20.0282000000	  10.4645000000
O	  25.8651000000	  17.8507000000	   9.9101700000
C	  25.0435000000	  19.4738000000	   8.0565300000
F	  26.0011000000	  20.4452000000	   8.0321900000
F	  23.9995000000	  20.1609000000	   7.6698800000
F	  25.2826000000	  18.5162000000	   7.1803700000
S	  22.0956000000	  18.2089000000	  10.5556000000
O	  22.2805000000	  18.8294000000	  11.8751000000
O	  21.4022000000	  16.9482000000	  10.4502000000
C	  21.0148000000	  19.3585000000	   9.6214600000
F	  20.7632000000	  18.9895000000	   8.3286900000
F	  19.8333000000	  19.4238000000	  10.2000000000
F	  21.4885000000	  20.6013000000	   9.5465400000
S	  29.8282000000	  23.7676000000	   2.4697200000
S	  29.5593000000	  25.0620000000	   4.1538700000
S	  27.6823000000	  25.9334000000	   4.0738500000
S	  26.9859000000	  25.5315000000	   8.8088200000
S	  25.5861000000	  24.9414000000	  10.2817000000
S	  24.9086000000	  23.0439000000	   9.7593500000
S	  26.1429000000	  26.5517000000	   7.1369400000
S	  26.3247000000	  25.2177000000	   5.4757900000
