37

Li	  20.1986000000	  42.3734000000	  10.5850000000
O	  19.7013000000	  44.0957000000	  10.0957000000
N	  18.6516000000	  45.9086000000	  10.9621000000
C	  19.4116000000	  45.2851000000	  10.0075000000
C	  18.0639000000	  45.3875000000	  12.1994000000
C	  19.7103000000	  46.0847000000	   8.8077200000
H	  18.4067000000	  46.8208000000	  10.7376000000
H	  18.1858000000	  44.3284000000	  12.0629000000
H	  18.7713000000	  45.6241000000	  12.9482000000
H	  17.0208000000	  45.6564000000	  12.2909000000
H	  19.5304000000	  45.5148000000	   7.8740900000
H	  19.0727000000	  46.9993000000	   8.7540100000
H	  20.7160000000	  46.4417000000	   8.8869100000
O	  21.6672000000	  41.7536000000	   9.6223800000
N	  22.9907000000	  42.6189000000	   7.9595300000
C	  22.6277000000	  41.6669000000	   8.8706900000
C	  22.3084000000	  43.8774000000	   7.8158300000
C	  23.3718000000	  40.3515000000	   8.8322400000
H	  23.8935000000	  42.4921000000	   7.4552500000
H	  21.2489000000	  43.7633000000	   8.0699200000
H	  22.8999000000	  44.6945000000	   8.1574400000
H	  22.3167000000	  43.9262000000	   6.7011300000
H	  22.5820000000	  39.6317000000	   8.8409800000
H	  24.0615000000	  40.1506000000	   7.9576400000
H	  23.9754000000	  40.2900000000	   9.7773100000
O	  19.0310000000	  41.1373000000	  11.2208000000
N	  18.8114000000	  38.9683000000	  11.7682000000
C	  18.4373000000	  40.2203000000	  11.7993000000
C	  20.0300000000	  38.3916000000	  11.1503000000
C	  17.1839000000	  40.5018000000	  12.5904000000
H	  18.3504000000	  38.3320000000	  12.4594000000
H	  20.7204000000	  38.2728000000	  11.9700000000
H	  19.8518000000	  37.4102000000	  10.8111000000
H	  20.4474000000	  38.9506000000	  10.2691000000
H	  17.2576000000	  41.3906000000	  13.2834000000
H	  16.3524000000	  40.7774000000	  11.8985000000
H	  16.8056000000	  39.6079000000	  13.1528000000
