42

Li	  21.0621000000	  37.8229000000	  36.2564000000
O	  17.4224000000	  39.5546000000	  36.8582000000
O	  19.6061000000	  39.1715000000	  36.4278000000
C	  17.6000000000	  39.7064000000	  35.4866000000
C	  19.0824000000	  40.0586000000	  35.4664000000
C	  18.5849000000	  39.0329000000	  37.3100000000
H	  17.3771000000	  38.7569000000	  34.9747000000
H	  16.8472000000	  40.3522000000	  35.0502000000
H	  19.5458000000	  39.9858000000	  34.4745000000
H	  19.2599000000	  41.0733000000	  35.8267000000
H	  18.7874000000	  39.4548000000	  38.2783000000
H	  18.3498000000	  38.0262000000	  37.4880000000
O	  22.6351000000	  38.7482000000	  36.8135000000
O	  23.9205000000	  39.5653000000	  38.3127000000
C	  23.8728000000	  38.1917000000	  36.4678000000
C	  24.8068000000	  38.6616000000	  37.6439000000
C	  22.8709000000	  39.8895000000	  37.4421000000
H	  23.6897000000	  37.1247000000	  36.3863000000
H	  24.2128000000	  38.4556000000	  35.4650000000
H	  25.0990000000	  37.8423000000	  38.2830000000
H	  25.6695000000	  39.1315000000	  37.2713000000
H	  23.0223000000	  40.5921000000	  36.6014000000
H	  22.0045000000	  40.2704000000	  37.9115000000
O	  20.1242000000	  35.8228000000	  39.4654000000
O	  20.6418000000	  36.4365000000	  37.3491000000
C	  20.3121000000	  34.6345000000	  38.8041000000
C	  20.7216000000	  34.9969000000	  37.3843000000
C	  20.7333000000	  36.8278000000	  38.6485000000
H	  21.1344000000	  33.9833000000	  39.2052000000
H	  19.3975000000	  34.0976000000	  38.7969000000
H	  21.7008000000	  34.5868000000	  37.1574000000
H	  20.1291000000	  34.5904000000	  36.6403000000
H	  20.1310000000	  37.6672000000	  38.8894000000
H	  21.7409000000	  36.8008000000	  39.0381000000
S	  20.8932000000	  37.0269000000	  34.3811000000
S	  18.8981000000	  36.4458000000	  33.8887000000
S	  18.7416000000	  34.4142000000	  33.1009000000
S	  17.5638000000	  30.0184000000	  32.7988000000
S	  18.2152000000	  29.2337000000	  30.9434000000
S	  18.7157000000	  27.2148000000	  31.1120000000
S	  19.1856000000	  30.9609000000	  33.7591000000
S	  18.5473000000	  32.8504000000	  34.4190000000
42

Li	  21.0621000000	  37.8229000000	  36.2564000000
O	  17.4224000000	  39.5546000000	  36.8582000000
O	  19.6061000000	  39.1715000000	  36.4278000000
C	  17.6000000000	  39.7064000000	  35.4866000000
C	  19.0824000000	  40.0586000000	  35.4664000000
C	  18.5849000000	  39.0329000000	  37.3100000000
H	  17.3771000000	  38.7569000000	  34.9747000000
H	  16.8472000000	  40.3522000000	  35.0502000000
H	  19.5458000000	  39.9858000000	  34.4745000000
H	  19.2599000000	  41.0733000000	  35.8267000000
H	  18.7874000000	  39.4548000000	  38.2783000000
H	  18.3498000000	  38.0262000000	  37.4880000000
O	  22.6351000000	  38.7482000000	  36.8135000000
O	  23.9205000000	  39.5653000000	  38.3127000000
C	  23.8728000000	  38.1917000000	  36.4678000000
C	  24.8068000000	  38.6616000000	  37.6439000000
C	  22.8709000000	  39.8895000000	  37.4421000000
H	  23.6897000000	  37.1247000000	  36.3863000000
H	  24.2128000000	  38.4556000000	  35.4650000000
H	  25.0990000000	  37.8423000000	  38.2830000000
H	  25.6695000000	  39.1315000000	  37.2713000000
H	  23.0223000000	  40.5921000000	  36.6014000000
H	  22.0045000000	  40.2704000000	  37.9115000000
O	  20.1242000000	  35.8228000000	  39.4654000000
O	  20.6418000000	  36.4365000000	  37.3491000000
C	  20.3121000000	  34.6345000000	  38.8041000000
C	  20.7216000000	  34.9969000000	  37.3843000000
C	  20.7333000000	  36.8278000000	  38.6485000000
H	  21.1344000000	  33.9833000000	  39.2052000000
H	  19.3975000000	  34.0976000000	  38.7969000000
H	  21.7008000000	  34.5868000000	  37.1574000000
H	  20.1291000000	  34.5904000000	  36.6403000000
H	  20.1310000000	  37.6672000000	  38.8894000000
H	  21.7409000000	  36.8008000000	  39.0381000000
S	  20.8932000000	  37.0269000000	  34.3811000000
S	  18.8981000000	  36.4458000000	  33.8887000000
S	  18.7416000000	  34.4142000000	  33.1009000000
S	  17.5638000000	  30.0184000000	  32.7988000000
S	  18.2152000000	  29.2337000000	  30.9434000000
S	  18.7157000000	  27.2148000000	  31.1120000000
S	  19.1856000000	  30.9609000000	  33.7591000000
S	  18.5473000000	  32.8504000000	  34.4190000000
