20

Li	  37.9484000000	  26.4063000000	  57.6539000000
O	  38.9805000000	  23.0728000000	  60.3940214259
O	  38.4514000000	  24.9369000000	  59.1735214259
C	  37.9052000000	  23.6718000000	  61.1129014259
C	  37.3580000000	  24.6804000000	  60.0202114259
C	  39.4931000000	  24.2325000000	  59.7812014259
H	  37.1090000000	  23.0204000000	  61.4617814259
H	  38.3085000000	  24.3172000000	  61.9584214259
H	  36.5880000000	  24.2034000000	  59.3910814259
H	  37.0026000000	  25.5621000000	  60.5197414259
H	  40.1154000000	  24.9270000000	  60.4011414259
H	  40.2710000000	  23.8755000000	  59.0532514259
S	  35.9192000000	  25.8080000000	  57.0779000000
S	  37.0457000000	  24.9082000000	  55.5190000000
S	  38.6896000000	  23.7859000000	  56.2001000000
S	  41.2729000000	  27.6702000000	  57.6663000000
S	  40.1405000000	  27.7850000000	  59.4809914259
S	  38.1130000000	  28.2451000000	  59.1876614259
S	  41.6475000000	  25.5936000000	  57.3947000000
S	  40.5182000000	  24.9151000000	  55.7384000000
20

Li	  37.9484000000	  26.4063000000	  57.6539000000
O	  38.9805000000	  23.0728000000	  60.3940214259
O	  38.4514000000	  24.9369000000	  59.1735214259
C	  37.9052000000	  23.6718000000	  61.1129014259
C	  37.3580000000	  24.6804000000	  60.0202114259
C	  39.4931000000	  24.2325000000	  59.7812014259
H	  37.1090000000	  23.0204000000	  61.4617814259
H	  38.3085000000	  24.3172000000	  61.9584214259
H	  36.5880000000	  24.2034000000	  59.3910814259
H	  37.0026000000	  25.5621000000	  60.5197414259
H	  40.1154000000	  24.9270000000	  60.4011414259
H	  40.2710000000	  23.8755000000	  59.0532514259
S	  35.9192000000	  25.8080000000	  57.0779000000
S	  37.0457000000	  24.9082000000	  55.5190000000
S	  38.6896000000	  23.7859000000	  56.2001000000
S	  41.2729000000	  27.6702000000	  57.6663000000
S	  40.1405000000	  27.7850000000	  59.4809914259
S	  38.1130000000	  28.2451000000	  59.1876614259
S	  41.6475000000	  25.5936000000	  57.3947000000
S	  40.5182000000	  24.9151000000	  55.7384000000
