55

Li	  14.8464000000	  16.7015000000	   9.3452400000
O	  14.7453000000	  15.9323000000	  11.0249000000
C	  14.8851000000	  16.7107000000	  12.1651000000
C	  15.6862000000	  15.7644000000	  13.0684000000
C	  15.5137000000	  14.4303000000	  12.4364000000
C	  14.3863000000	  14.6597000000	  11.4727000000
C	  15.5755000000	  18.1035000000	  11.8286000000
H	  13.8669000000	  16.9651000000	  12.5143000000
H	  16.6835000000	  16.1051000000	  12.9185000000
H	  15.4791000000	  15.8563000000	  14.1302000000
H	  16.4435000000	  14.1622000000	  11.9146000000
H	  15.4402000000	  13.6995000000	  13.2436000000
H	  13.4632000000	  14.6114000000	  12.0797000000
H	  14.3451000000	  13.8891000000	  10.7169000000
H	  16.5725000000	  18.0533000000	  11.4385000000
H	  14.9831000000	  18.7829000000	  11.1565000000
H	  15.7176000000	  18.5069000000	  12.8328000000
N	  13.3182000000	  13.7004000000	   6.3747000000
S	  14.4114000000	  14.5751000000	   6.9995000000
O	  14.0167000000	  15.1482000000	   8.3122400000
O	  15.7215000000	  14.0353000000	   6.8396900000
C	  14.3587000000	  16.0086000000	   5.8586400000
F	  14.6812000000	  15.5431000000	   4.6273800000
F	  15.2472000000	  17.0065000000	   6.1297900000
F	  13.1191000000	  16.4884000000	   5.6977700000
S	  12.2341000000	  12.7834000000	   7.0971100000
O	  12.5985000000	  12.1440000000	   8.3520500000
O	  11.5152000000	  11.9472000000	   6.1521800000
C	  10.9825000000	  14.0824000000	   7.5472400000
F	  11.4984000000	  14.9887000000	   8.4429900000
F	  10.5570000000	  14.7398000000	   6.4539000000
F	   9.9182900000	  13.5351000000	   8.0128800000
N	  11.9764000000	  19.0316000000	  11.0907000000
S	  12.3135000000	  18.9580000000	   9.5140600000
O	  12.3707000000	  20.2133000000	   8.8770900000
O	  13.3441000000	  17.9263000000	   9.1898700000
C	  10.7738000000	  18.2011000000	   8.8642100000
F	   9.8197600000	  19.1070000000	   8.6124800000
F	  10.2525000000	  17.3355000000	   9.6863400000
F	  11.0639000000	  17.7105000000	   7.6795700000
S	  11.5449000000	  20.3279000000	  11.9099000000
O	  10.8006000000	  19.9677000000	  13.0861000000
O	  10.9500000000	  21.3606000000	  11.1558000000
C	  13.1917000000	  20.8716000000	  12.4609000000
F	  14.0538000000	  21.1970000000	  11.5128000000
F	  13.0950000000	  21.9186000000	  13.2995000000
F	  13.7484000000	  19.9724000000	  13.2209000000
S	  18.1466000000	  25.2858000000	  14.5354000000
S	  18.6968000000	  24.6485000000	  12.6730000000
S	  17.0305000000	  23.8177000000	  11.8325000000
S	  18.6306000000	  19.2948000000	   9.1682000000
S	  16.8922000000	  18.3934000000	   8.4878400000
S	  16.9674000000	  16.3076000000	   8.9018400000
S	  18.2392000000	  20.6815000000	  10.7046000000
S	  17.3726000000	  22.5609000000	  10.0938000000
55

Li	  14.8464000000	  16.7015000000	   9.3452400000
O	  14.7453000000	  15.9323000000	  11.0249000000
C	  14.8851000000	  16.7107000000	  12.1651000000
C	  15.6862000000	  15.7644000000	  13.0684000000
C	  15.5137000000	  14.4303000000	  12.4364000000
C	  14.3863000000	  14.6597000000	  11.4727000000
C	  15.5755000000	  18.1035000000	  11.8286000000
H	  13.8669000000	  16.9651000000	  12.5143000000
H	  16.6835000000	  16.1051000000	  12.9185000000
H	  15.4791000000	  15.8563000000	  14.1302000000
H	  16.4435000000	  14.1622000000	  11.9146000000
H	  15.4402000000	  13.6995000000	  13.2436000000
H	  13.4632000000	  14.6114000000	  12.0797000000
H	  14.3451000000	  13.8891000000	  10.7169000000
H	  16.5725000000	  18.0533000000	  11.4385000000
H	  14.9831000000	  18.7829000000	  11.1565000000
H	  15.7176000000	  18.5069000000	  12.8328000000
N	  13.3182000000	  13.7004000000	   6.3747000000
S	  14.4114000000	  14.5751000000	   6.9995000000
O	  14.0167000000	  15.1482000000	   8.3122400000
O	  15.7215000000	  14.0353000000	   6.8396900000
C	  14.3587000000	  16.0086000000	   5.8586400000
F	  14.6812000000	  15.5431000000	   4.6273800000
F	  15.2472000000	  17.0065000000	   6.1297900000
F	  13.1191000000	  16.4884000000	   5.6977700000
S	  12.2341000000	  12.7834000000	   7.0971100000
O	  12.5985000000	  12.1440000000	   8.3520500000
O	  11.5152000000	  11.9472000000	   6.1521800000
C	  10.9825000000	  14.0824000000	   7.5472400000
F	  11.4984000000	  14.9887000000	   8.4429900000
F	  10.5570000000	  14.7398000000	   6.4539000000
F	   9.9182900000	  13.5351000000	   8.0128800000
N	  11.9764000000	  19.0316000000	  11.0907000000
S	  12.3135000000	  18.9580000000	   9.5140600000
O	  12.3707000000	  20.2133000000	   8.8770900000
O	  13.3441000000	  17.9263000000	   9.1898700000
C	  10.7738000000	  18.2011000000	   8.8642100000
F	   9.8197600000	  19.1070000000	   8.6124800000
F	  10.2525000000	  17.3355000000	   9.6863400000
F	  11.0639000000	  17.7105000000	   7.6795700000
S	  11.5449000000	  20.3279000000	  11.9099000000
O	  10.8006000000	  19.9677000000	  13.0861000000
O	  10.9500000000	  21.3606000000	  11.1558000000
C	  13.1917000000	  20.8716000000	  12.4609000000
F	  14.0538000000	  21.1970000000	  11.5128000000
F	  13.0950000000	  21.9186000000	  13.2995000000
F	  13.7484000000	  19.9724000000	  13.2209000000
S	  18.1466000000	  25.2858000000	  14.5354000000
S	  18.6968000000	  24.6485000000	  12.6730000000
S	  17.0305000000	  23.8177000000	  11.8325000000
S	  18.6306000000	  19.2948000000	   9.1682000000
S	  16.8922000000	  18.3934000000	   8.4878400000
S	  16.9674000000	  16.3076000000	   8.9018400000
S	  18.2392000000	  20.6815000000	  10.7046000000
S	  17.3726000000	  22.5609000000	  10.0938000000
