38

Li	   8.8140000000	  11.9434000000	  52.0565000000
O	   9.4820300000	  10.4034000000	  53.0477000000
O	  10.8271000000	   8.8736600000	  53.9734000000
C	   8.8807900000	   9.9398600000	  54.1892000000
C	   9.5592100000	   8.6188300000	  54.5004000000
C	  10.8504000000	  10.0649000000	  53.2359000000
H	   9.0348700000	  10.6443000000	  54.9794000000
H	   7.8542400000	   9.8147300000	  54.1398000000
H	   9.4915600000	   8.3892500000	  55.5672000000
H	   8.9845800000	   7.8484200000	  53.9405000000
H	  11.2618000000	   9.8243400000	  52.2736000000
H	  11.2988000000	  10.8346000000	  53.7077000000
O	   8.7296600000	  13.5131000000	  53.6209000000
O	   7.5487000000	  14.9541000000	  54.9364000000
C	   9.6880600000	  14.2918000000	  54.2829000000
C	   8.8890100000	  15.4970000000	  54.8719000000
C	   7.5588300000	  13.7189000000	  54.2562000000
H	  10.1647000000	  13.8317000000	  55.1317000000
H	  10.4735000000	  14.7042000000	  53.6337000000
H	   9.2617600000	  15.7838000000	  55.8490000000
H	   8.8812500000	  16.4442000000	  54.2784000000
H	   6.7671100000	  13.8304000000	  53.5240000000
H	   7.2745800000	  13.0183000000	  55.0078000000
N	   7.2159300000	  10.2433000000	  49.4967000000
S	   8.7266700000	  10.5550000000	  49.3010000000
O	   9.1122700000	  10.9243000000	  47.9461000000
O	   9.3069600000	  11.2358000000	  50.4123000000
C	   9.4767200000	   8.9134100000	  49.3879000000
F	   9.0833500000	   8.3363000000	  50.5450000000
F	  10.7763000000	   8.8708100000	  49.3477000000
F	   9.0479100000	   7.9547500000	  48.4885000000
S	   6.2466500000	  10.6255000000	  50.6578000000
O	   4.9980500000	  11.2757000000	  50.1873000000
O	   7.0047800000	  11.2915000000	  51.7148000000
C	   5.6192800000	   9.0404600000	  51.3520000000
F	   4.6720000000	   9.2228200000	  52.2063000000
F	   5.1114400000	   8.2675600000	  50.4418000000
F	   6.5646900000	   8.3795000000	  51.9699000000
38

Li	   8.8140000000	  11.9434000000	  52.0565000000
O	   9.4820300000	  10.4034000000	  53.0477000000
O	  10.8271000000	   8.8736600000	  53.9734000000
C	   8.8807900000	   9.9398600000	  54.1892000000
C	   9.5592100000	   8.6188300000	  54.5004000000
C	  10.8504000000	  10.0649000000	  53.2359000000
H	   9.0348700000	  10.6443000000	  54.9794000000
H	   7.8542400000	   9.8147300000	  54.1398000000
H	   9.4915600000	   8.3892500000	  55.5672000000
H	   8.9845800000	   7.8484200000	  53.9405000000
H	  11.2618000000	   9.8243400000	  52.2736000000
H	  11.2988000000	  10.8346000000	  53.7077000000
O	   8.7296600000	  13.5131000000	  53.6209000000
O	   7.5487000000	  14.9541000000	  54.9364000000
C	   9.6880600000	  14.2918000000	  54.2829000000
C	   8.8890100000	  15.4970000000	  54.8719000000
C	   7.5588300000	  13.7189000000	  54.2562000000
H	  10.1647000000	  13.8317000000	  55.1317000000
H	  10.4735000000	  14.7042000000	  53.6337000000
H	   9.2617600000	  15.7838000000	  55.8490000000
H	   8.8812500000	  16.4442000000	  54.2784000000
H	   6.7671100000	  13.8304000000	  53.5240000000
H	   7.2745800000	  13.0183000000	  55.0078000000
N	   7.2159300000	  10.2433000000	  49.4967000000
S	   8.7266700000	  10.5550000000	  49.3010000000
O	   9.1122700000	  10.9243000000	  47.9461000000
O	   9.3069600000	  11.2358000000	  50.4123000000
C	   9.4767200000	   8.9134100000	  49.3879000000
F	   9.0833500000	   8.3363000000	  50.5450000000
F	  10.7763000000	   8.8708100000	  49.3477000000
F	   9.0479100000	   7.9547500000	  48.4885000000
S	   6.2466500000	  10.6255000000	  50.6578000000
O	   4.9980500000	  11.2757000000	  50.1873000000
O	   7.0047800000	  11.2915000000	  51.7148000000
C	   5.6192800000	   9.0404600000	  51.3520000000
F	   4.6720000000	   9.2228200000	  52.2063000000
F	   5.1114400000	   8.2675600000	  50.4418000000
F	   6.5646900000	   8.3795000000	  51.9699000000
