47

Li	  32.9371000000	  31.3083000000	  55.5550000000
O	  32.1152000000	  31.1362000000	  53.4617000000
O	  30.8497000000	  32.1874000000	  51.9100000000
C	  31.0072000000	  30.2491000000	  53.2806000000
C	  30.1043000000	  31.2015000000	  52.4210000000
C	  32.1418000000	  31.9830000000	  52.2995000000
H	  31.3506000000	  29.3394000000	  52.7669000000
H	  30.5560000000	  30.0473000000	  54.2886000000
H	  29.7509000000	  30.6671000000	  51.5891000000
H	  29.2681000000	  31.5680000000	  52.9645000000
H	  32.7117000000	  32.9190000000	  52.4505000000
H	  32.5417000000	  31.4480000000	  51.4548000000
O	  34.7845000000	  31.3545000000	  54.9171000000
O	  36.5719000000	  31.6341000000	  53.5953000000
C	  35.8116000000	  31.8576000000	  55.8381000000
C	  37.0673000000	  31.8636000000	  54.9309000000
C	  35.5510000000	  30.7852000000	  53.9013000000
H	  35.5731000000	  32.8156000000	  56.2578000000
H	  35.9283000000	  31.1968000000	  56.6141000000
H	  37.6519000000	  32.7704000000	  55.0624000000
H	  37.6038000000	  30.9193000000	  55.2728000000
H	  36.0345000000	  29.8256000000	  54.2105000000
H	  35.0471000000	  30.5832000000	  52.8900000000
O	  33.3348000000	  29.9573000000	  56.9705000000
C	  33.9624000000	  28.7688000000	  56.5563000000
C	  33.7034000000	  27.7099000000	  57.6765000000
C	  33.3640000000	  28.5291000000	  58.8905000000
C	  33.4795000000	  29.9579000000	  58.3909000000
C	  33.2978000000	  28.2150000000	  55.2954000000
H	  35.0620000000	  28.8086000000	  56.4572000000
H	  32.9253000000	  26.9223000000	  57.4507000000
H	  34.5870000000	  27.0789000000	  57.8963000000
H	  32.3310000000	  28.3442000000	  59.3031114259
H	  34.0491000000	  28.4093000000	  59.7723414259
H	  34.3907000000	  30.4429000000	  58.6688000000
H	  32.8398000000	  30.6214000000	  58.9604000000
H	  33.7731000000	  27.3527000000	  54.8823000000
H	  32.2411000000	  27.9253000000	  55.3497000000
H	  33.3763000000	  28.9600000000	  54.5012000000
S	  36.3129000000	  33.5615000000	  59.2968014259
S	  34.1793000000	  33.7741000000	  59.3582914259
S	  33.2668000000	  32.9074000000	  60.9954714259
S	  29.7669000000	  32.6918000000	  58.0179000000
S	  30.9106000000	  31.8803000000	  56.4962000000
S	  32.4196000000	  33.2942000000	  56.0644000000
S	  30.1257000000	  31.7708000000	  59.8712914259
S	  31.1618000000	  33.2038000000	  60.9848314259
47

Li	  32.9371000000	  31.3083000000	  55.5550000000
O	  32.1152000000	  31.1362000000	  53.4617000000
O	  30.8497000000	  32.1874000000	  51.9100000000
C	  31.0072000000	  30.2491000000	  53.2806000000
C	  30.1043000000	  31.2015000000	  52.4210000000
C	  32.1418000000	  31.9830000000	  52.2995000000
H	  31.3506000000	  29.3394000000	  52.7669000000
H	  30.5560000000	  30.0473000000	  54.2886000000
H	  29.7509000000	  30.6671000000	  51.5891000000
H	  29.2681000000	  31.5680000000	  52.9645000000
H	  32.7117000000	  32.9190000000	  52.4505000000
H	  32.5417000000	  31.4480000000	  51.4548000000
O	  34.7845000000	  31.3545000000	  54.9171000000
O	  36.5719000000	  31.6341000000	  53.5953000000
C	  35.8116000000	  31.8576000000	  55.8381000000
C	  37.0673000000	  31.8636000000	  54.9309000000
C	  35.5510000000	  30.7852000000	  53.9013000000
H	  35.5731000000	  32.8156000000	  56.2578000000
H	  35.9283000000	  31.1968000000	  56.6141000000
H	  37.6519000000	  32.7704000000	  55.0624000000
H	  37.6038000000	  30.9193000000	  55.2728000000
H	  36.0345000000	  29.8256000000	  54.2105000000
H	  35.0471000000	  30.5832000000	  52.8900000000
O	  33.3348000000	  29.9573000000	  56.9705000000
C	  33.9624000000	  28.7688000000	  56.5563000000
C	  33.7034000000	  27.7099000000	  57.6765000000
C	  33.3640000000	  28.5291000000	  58.8905000000
C	  33.4795000000	  29.9579000000	  58.3909000000
C	  33.2978000000	  28.2150000000	  55.2954000000
H	  35.0620000000	  28.8086000000	  56.4572000000
H	  32.9253000000	  26.9223000000	  57.4507000000
H	  34.5870000000	  27.0789000000	  57.8963000000
H	  32.3310000000	  28.3442000000	  59.3031114259
H	  34.0491000000	  28.4093000000	  59.7723414259
H	  34.3907000000	  30.4429000000	  58.6688000000
H	  32.8398000000	  30.6214000000	  58.9604000000
H	  33.7731000000	  27.3527000000	  54.8823000000
H	  32.2411000000	  27.9253000000	  55.3497000000
H	  33.3763000000	  28.9600000000	  54.5012000000
S	  36.3129000000	  33.5615000000	  59.2968014259
S	  34.1793000000	  33.7741000000	  59.3582914259
S	  33.2668000000	  32.9074000000	  60.9954714259
S	  29.7669000000	  32.6918000000	  58.0179000000
S	  30.9106000000	  31.8803000000	  56.4962000000
S	  32.4196000000	  33.2942000000	  56.0644000000
S	  30.1257000000	  31.7708000000	  59.8712914259
S	  31.1618000000	  33.2038000000	  60.9848314259
