57

Li	  14.1944000000	  54.4811000000	  37.5992000000
O	  13.3370000000	  54.6066000000	  33.7786000000
O	  14.0348000000	  53.7920000000	  35.7942000000
C	  14.6826000000	  55.0433000000	  34.0909000000
C	  15.1614000000	  53.9141000000	  35.0069000000
C	  12.9533000000	  53.7494000000	  34.8518000000
H	  15.3384000000	  55.1943000000	  33.1913000000
H	  14.6533000000	  55.9880000000	  34.6965000000
H	  15.2767000000	  53.0012000000	  34.4251000000
H	  16.0839000000	  54.2450000000	  35.4867000000
H	  12.0225000000	  54.0124000000	  35.2821000000
H	  12.7754000000	  52.7300000000	  34.5108000000
N	  17.2150000000	  57.2076000000	  35.8979000000
S	  18.4213000000	  57.0204000000	  34.8818000000
O	  19.6419000000	  57.7113000000	  35.2127000000
O	  18.4526000000	  55.6876000000	  34.3934000000
C	  17.7837000000	  57.8985000000	  33.4648000000
F	  17.5152000000	  59.1390836761	  33.8062000000
F	  16.6624000000	  57.3373000000	  32.9587000000
F	  18.6705000000	  57.9769000000	  32.5029000000
S	  17.0536000000	  56.3919000000	  37.1970000000
O	  18.1710000000	  55.4881000000	  37.4083000000
O	  15.6684000000	  55.9587000000	  37.4392000000
C	  17.1230000000	  57.8160000000	  38.3887000000
F	  17.2863000000	  57.3985000000	  39.6366000000
F	  18.1460000000	  58.6164000000	  38.2330000000
F	  16.0099000000	  58.4706000000	  38.3754000000
N	  15.0066000000	  50.5169000000	  38.7029000000
S	  15.8370000000	  51.8329000000	  38.5487000000
O	  17.1486000000	  51.7153000000	  37.8670000000
O	  15.0222000000	  53.0004000000	  38.2568000000
C	  16.4647000000	  52.1473000000	  40.1978000000
F	  15.4423000000	  52.2902000000	  41.0371000000
F	  17.2410000000	  53.2248000000	  40.2931000000
F	  17.2689000000	  51.2652000000	  40.6837000000
S	  13.4102000000	  50.4564000000	  38.4793000000
O	  12.9892000000	  50.9175000000	  37.1980000000
O	  12.6636000000	  50.8126000000	  39.6287000000
C	  13.0978000000	  48.6502000000	  38.4972000000
F	  13.3833000000	  48.0664000000	  39.6729000000
F	  11.8560000000	  48.3487000000	  38.2326000000
F	  13.8456000000	  48.0480000000	  37.6024000000
N	  10.0541000000	  55.8233000000	  38.3174000000
S	  11.4701000000	  55.9539000000	  39.0072000000
O	  11.4410000000	  55.9493000000	  40.4353000000
O	  12.6203000000	  55.2667000000	  38.3643000000
C	  11.8284000000	  57.7353000000	  38.6369000000
F	  10.9877000000	  58.4586000000	  39.3115000000
F	  11.6030000000	  58.1335000000	  37.3596000000
F	  13.0269000000	  58.0813000000	  39.0213000000
S	   8.6325300000	  55.8063000000	  38.9806000000
O	   8.4692500000	  56.5345000000	  40.1966000000
O	   7.9586200000	  54.5638000000	  38.9367000000
C	   7.7278300000	  56.7833000000	  37.6730000000
F	   8.1781000000	  58.0238000000	  37.6112000000
F	   7.7306000000	  56.2565000000	  36.5113000000
F	   6.4960200000	  56.9078000000	  38.0861000000
57

Li	  14.1944000000	  54.4811000000	  37.5992000000
O	  13.3370000000	  54.6066000000	  33.7786000000
O	  14.0348000000	  53.7920000000	  35.7942000000
C	  14.6826000000	  55.0433000000	  34.0909000000
C	  15.1614000000	  53.9141000000	  35.0069000000
C	  12.9533000000	  53.7494000000	  34.8518000000
H	  15.3384000000	  55.1943000000	  33.1913000000
H	  14.6533000000	  55.9880000000	  34.6965000000
H	  15.2767000000	  53.0012000000	  34.4251000000
H	  16.0839000000	  54.2450000000	  35.4867000000
H	  12.0225000000	  54.0124000000	  35.2821000000
H	  12.7754000000	  52.7300000000	  34.5108000000
N	  17.2150000000	  57.2076000000	  35.8979000000
S	  18.4213000000	  57.0204000000	  34.8818000000
O	  19.6419000000	  57.7113000000	  35.2127000000
O	  18.4526000000	  55.6876000000	  34.3934000000
C	  17.7837000000	  57.8985000000	  33.4648000000
F	  17.5152000000	  59.1390836761	  33.8062000000
F	  16.6624000000	  57.3373000000	  32.9587000000
F	  18.6705000000	  57.9769000000	  32.5029000000
S	  17.0536000000	  56.3919000000	  37.1970000000
O	  18.1710000000	  55.4881000000	  37.4083000000
O	  15.6684000000	  55.9587000000	  37.4392000000
C	  17.1230000000	  57.8160000000	  38.3887000000
F	  17.2863000000	  57.3985000000	  39.6366000000
F	  18.1460000000	  58.6164000000	  38.2330000000
F	  16.0099000000	  58.4706000000	  38.3754000000
N	  15.0066000000	  50.5169000000	  38.7029000000
S	  15.8370000000	  51.8329000000	  38.5487000000
O	  17.1486000000	  51.7153000000	  37.8670000000
O	  15.0222000000	  53.0004000000	  38.2568000000
C	  16.4647000000	  52.1473000000	  40.1978000000
F	  15.4423000000	  52.2902000000	  41.0371000000
F	  17.2410000000	  53.2248000000	  40.2931000000
F	  17.2689000000	  51.2652000000	  40.6837000000
S	  13.4102000000	  50.4564000000	  38.4793000000
O	  12.9892000000	  50.9175000000	  37.1980000000
O	  12.6636000000	  50.8126000000	  39.6287000000
C	  13.0978000000	  48.6502000000	  38.4972000000
F	  13.3833000000	  48.0664000000	  39.6729000000
F	  11.8560000000	  48.3487000000	  38.2326000000
F	  13.8456000000	  48.0480000000	  37.6024000000
N	  10.0541000000	  55.8233000000	  38.3174000000
S	  11.4701000000	  55.9539000000	  39.0072000000
O	  11.4410000000	  55.9493000000	  40.4353000000
O	  12.6203000000	  55.2667000000	  38.3643000000
C	  11.8284000000	  57.7353000000	  38.6369000000
F	  10.9877000000	  58.4586000000	  39.3115000000
F	  11.6030000000	  58.1335000000	  37.3596000000
F	  13.0269000000	  58.0813000000	  39.0213000000
S	   8.6325300000	  55.8063000000	  38.9806000000
O	   8.4692500000	  56.5345000000	  40.1966000000
O	   7.9586200000	  54.5638000000	  38.9367000000
C	   7.7278300000	  56.7833000000	  37.6730000000
F	   8.1781000000	  58.0238000000	  37.6112000000
F	   7.7306000000	  56.2565000000	  36.5113000000
F	   6.4960200000	  56.9078000000	  38.0861000000
