43

Li	  38.6088000000	  47.4853000000	  45.0622000000
O	  42.6489000000	  46.2876000000	  44.6653000000
O	  40.4569000000	  46.7087000000	  45.2154000000
C	  42.0125000000	  45.0628000000	  44.9732000000
C	  40.8262000000	  45.5262000000	  45.8397000000
C	  41.6695000000	  47.3016000000	  44.6912000000
H	  41.6568000000	  44.6962000000	  43.9429000000
H	  42.6892000000	  44.3476000000	  45.4577000000
H	  40.0569000000	  44.7499000000	  45.9885000000
H	  41.1734000000	  45.7378000000	  46.8342000000
H	  41.9370000000	  48.1278000000	  45.2928000000
H	  41.4563000000	  47.5538000000	  43.7132000000
N	  37.7157000000	  45.6166000000	  40.9972000000
S	  38.4439000000	  45.2497000000	  42.3752000000
O	  39.6743000000	  44.4699000000	  42.2945000000
O	  38.4395000000	  46.2953000000	  43.3573000000
C	  37.2366000000	  44.0918000000	  43.0422000000
F	  37.5635000000	  43.6753000000	  44.2274000000
F	  37.0934000000	  42.9803000000	  42.3693000000
F	  36.0393000000	  44.6289000000	  43.2123000000
S	  37.1855000000	  46.9787000000	  40.3956000000
O	  37.2156000000	  47.0833000000	  38.9950000000
O	  37.7003000000	  48.0986000000	  41.1010000000
C	  35.3529000000	  47.0856000000	  40.9171000000
F	  34.6385000000	  48.0302000000	  40.3605000000
F	  34.7275000000	  45.9932000000	  40.5102000000
F	  35.2730000000	  47.2086000000	  42.2110000000
S	  38.7367000000	  49.3463000000	  44.0063000000
S	  39.5124000000	  50.5639000000	  45.6467000000
S	  39.1107000000	  49.7088000000	  47.5960000000
S	  42.0329000000	  49.2964000000	  51.5259000000
S	  40.6708000000	  50.0098000000	  52.9496000000
S	  38.9591000000	  48.7681000000	  53.0113000000
S	  41.8885000000	  49.9685000000	  49.5709000000
S	  40.7896000000	  48.6861000000	  48.2893000000
S	  28.7497000000	  47.1343000000	  52.3631000000
S	  30.8811000000	  47.0791000000	  52.8558000000
S	  32.0005000000	  45.7608000000	  51.5601000000
S	  36.2768000000	  47.2088000000	  49.1781000000
S	  37.5752000000	  46.6789000000	  47.5997000000
S	  36.6857000000	  47.0932000000	  45.6919000000
S	  35.3253000000	  45.5998000000	  50.1150000000
S	  34.0713000000	  46.0674000000	  51.6122000000
43

Li	  38.6088000000	  47.4853000000	  45.0622000000
O	  42.6489000000	  46.2876000000	  44.6653000000
O	  40.4569000000	  46.7087000000	  45.2154000000
C	  42.0125000000	  45.0628000000	  44.9732000000
C	  40.8262000000	  45.5262000000	  45.8397000000
C	  41.6695000000	  47.3016000000	  44.6912000000
H	  41.6568000000	  44.6962000000	  43.9429000000
H	  42.6892000000	  44.3476000000	  45.4577000000
H	  40.0569000000	  44.7499000000	  45.9885000000
H	  41.1734000000	  45.7378000000	  46.8342000000
H	  41.9370000000	  48.1278000000	  45.2928000000
H	  41.4563000000	  47.5538000000	  43.7132000000
N	  37.7157000000	  45.6166000000	  40.9972000000
S	  38.4439000000	  45.2497000000	  42.3752000000
O	  39.6743000000	  44.4699000000	  42.2945000000
O	  38.4395000000	  46.2953000000	  43.3573000000
C	  37.2366000000	  44.0918000000	  43.0422000000
F	  37.5635000000	  43.6753000000	  44.2274000000
F	  37.0934000000	  42.9803000000	  42.3693000000
F	  36.0393000000	  44.6289000000	  43.2123000000
S	  37.1855000000	  46.9787000000	  40.3956000000
O	  37.2156000000	  47.0833000000	  38.9950000000
O	  37.7003000000	  48.0986000000	  41.1010000000
C	  35.3529000000	  47.0856000000	  40.9171000000
F	  34.6385000000	  48.0302000000	  40.3605000000
F	  34.7275000000	  45.9932000000	  40.5102000000
F	  35.2730000000	  47.2086000000	  42.2110000000
S	  38.7367000000	  49.3463000000	  44.0063000000
S	  39.5124000000	  50.5639000000	  45.6467000000
S	  39.1107000000	  49.7088000000	  47.5960000000
S	  42.0329000000	  49.2964000000	  51.5259000000
S	  40.6708000000	  50.0098000000	  52.9496000000
S	  38.9591000000	  48.7681000000	  53.0113000000
S	  41.8885000000	  49.9685000000	  49.5709000000
S	  40.7896000000	  48.6861000000	  48.2893000000
S	  28.7497000000	  47.1343000000	  52.3631000000
S	  30.8811000000	  47.0791000000	  52.8558000000
S	  32.0005000000	  45.7608000000	  51.5601000000
S	  36.2768000000	  47.2088000000	  49.1781000000
S	  37.5752000000	  46.6789000000	  47.5997000000
S	  36.6857000000	  47.0932000000	  45.6919000000
S	  35.3253000000	  45.5998000000	  50.1150000000
S	  34.0713000000	  46.0674000000	  51.6122000000
