39

Li	  38.7832000000	  26.8852000000	   9.4956600000
N	  40.7533000000	  30.8031000000	   9.6541900000
S	  41.3398000000	  32.0373000000	  10.4621000000
O	  41.4935000000	  31.7710000000	  11.8771000000
O	  42.4283000000	  32.6568000000	   9.6887300000
C	  40.0191000000	  33.3032000000	  10.3634000000
F	  38.7604000000	  32.7731000000	  10.3862000000
F	  40.1362000000	  34.0461000000	   9.2458000000
F	  40.1048000000	  34.1873000000	  11.3619000000
S	  41.1388000000	  29.2574000000	   9.7835900000
O	  39.9958000000	  28.3827000000	   9.4850800000
O	  41.8901000000	  29.1121000000	  10.9954000000
C	  42.3908000000	  28.9518000000	   8.4406600000
F	  41.8106000000	  28.8525000000	   7.2286600000
F	  43.2168000000	  29.9600000000	   8.4354300000
F	  43.2516000000	  27.8942000000	   8.5824600000
N	  35.9168000000	  27.4935000000	   7.9292300000
S	  37.0245000000	  26.9498000000	   6.9878600000
O	  37.5394000000	  27.7927000000	   5.9229900000
O	  37.9488000000	  26.0629000000	   7.6806900000
C	  35.9720000000	  25.8131000000	   6.0308600000
F	  35.1494000000	  26.4798000000	   5.2887100000
F	  35.2256000000	  25.1016000000	   6.8105500000
F	  36.5785000000	  24.9914000000	   5.2415500000
S	  36.0677000000	  28.0427000000	   9.4451100000
O	  35.3977000000	  29.2875000000	   9.7013100000
O	  37.3013000000	  27.8072000000	  10.1607000000
C	  34.9624000000	  26.7818000000	  10.1818000000
F	  33.6874000000	  26.7919000000	   9.7648400000
F	  35.4278000000	  25.5802000000	   9.9353300000
F	  34.9409000000	  26.9462000000	  11.4660000000
S	  39.4738000000	  25.5644000000	  11.0218000000
S	  40.0257000000	  24.2661000000	   9.3915200000
S	  41.9469000000	  23.2516000000	   9.5771300000
S	  45.3229000000	  24.2147000000	   5.5956500000
S	  45.0608000000	  23.6583000000	   3.5025400000
S	  43.3826000000	  24.4456000000	   2.2856300000
S	  44.2532000000	  23.0599000000	   6.9078900000
S	  43.4581000000	  24.2262000000	   8.4673000000
39

Li	  38.7832000000	  26.8852000000	   9.4956600000
N	  40.7533000000	  30.8031000000	   9.6541900000
S	  41.3398000000	  32.0373000000	  10.4621000000
O	  41.4935000000	  31.7710000000	  11.8771000000
O	  42.4283000000	  32.6568000000	   9.6887300000
C	  40.0191000000	  33.3032000000	  10.3634000000
F	  38.7604000000	  32.7731000000	  10.3862000000
F	  40.1362000000	  34.0461000000	   9.2458000000
F	  40.1048000000	  34.1873000000	  11.3619000000
S	  41.1388000000	  29.2574000000	   9.7835900000
O	  39.9958000000	  28.3827000000	   9.4850800000
O	  41.8901000000	  29.1121000000	  10.9954000000
C	  42.3908000000	  28.9518000000	   8.4406600000
F	  41.8106000000	  28.8525000000	   7.2286600000
F	  43.2168000000	  29.9600000000	   8.4354300000
F	  43.2516000000	  27.8942000000	   8.5824600000
N	  35.9168000000	  27.4935000000	   7.9292300000
S	  37.0245000000	  26.9498000000	   6.9878600000
O	  37.5394000000	  27.7927000000	   5.9229900000
O	  37.9488000000	  26.0629000000	   7.6806900000
C	  35.9720000000	  25.8131000000	   6.0308600000
F	  35.1494000000	  26.4798000000	   5.2887100000
F	  35.2256000000	  25.1016000000	   6.8105500000
F	  36.5785000000	  24.9914000000	   5.2415500000
S	  36.0677000000	  28.0427000000	   9.4451100000
O	  35.3977000000	  29.2875000000	   9.7013100000
O	  37.3013000000	  27.8072000000	  10.1607000000
C	  34.9624000000	  26.7818000000	  10.1818000000
F	  33.6874000000	  26.7919000000	   9.7648400000
F	  35.4278000000	  25.5802000000	   9.9353300000
F	  34.9409000000	  26.9462000000	  11.4660000000
S	  39.4738000000	  25.5644000000	  11.0218000000
S	  40.0257000000	  24.2661000000	   9.3915200000
S	  41.9469000000	  23.2516000000	   9.5771300000
S	  45.3229000000	  24.2147000000	   5.5956500000
S	  45.0608000000	  23.6583000000	   3.5025400000
S	  43.3826000000	  24.4456000000	   2.2856300000
S	  44.2532000000	  23.0599000000	   6.9078900000
S	  43.4581000000	  24.2262000000	   8.4673000000
