43

Li	  25.4199000000	  33.3585000000	  21.2856000000
O	  24.6813000000	  33.4269000000	  19.6081000000
O	  23.2548000000	  32.6512000000	  18.1350000000
C	  25.4029000000	  33.3968000000	  18.3997000000
C	  24.6034000000	  32.2986000000	  17.6525000000
C	  23.4331000000	  32.8282000000	  19.4749000000
H	  25.2782000000	  34.3424000000	  17.8064000000
H	  26.4657000000	  33.1748000000	  18.4260000000
H	  24.6067000000	  32.3740000000	  16.5786000000
H	  24.8678000000	  31.3340000000	  17.9479000000
H	  23.5951000000	  31.8067000000	  19.7329000000
H	  22.5042000000	  33.3035000000	  19.8688000000
O	  27.1613000000	  32.9500000000	  20.9568000000
C	  27.5280000000	  31.4831000000	  20.7601000000
C	  28.5396000000	  31.1668000000	  21.9215000000
C	  28.8991000000	  32.5520000000	  22.3874000000
C	  28.3769000000	  33.5501000000	  21.3723000000
C	  26.3483000000	  30.5409000000	  21.0143000000
H	  27.9022000000	  31.3214000000	  19.7886000000
H	  28.0522000000	  30.7136000000	  22.8675000000
H	  29.4345000000	  30.6014000000	  21.7037000000
H	  28.3169000000	  32.8059000000	  23.2890000000
H	  29.9068000000	  32.5905000000	  22.6585000000
H	  29.1074000000	  33.7562000000	  20.5531000000
H	  27.9704000000	  34.4803000000	  21.8310000000
H	  25.9170000000	  30.5917000000	  22.0117000000
H	  25.5705000000	  30.6684000000	  20.2761000000
H	  26.7151000000	  29.4714000000	  20.8872000000
N	  24.1351000000	  32.0784000000	  25.1141000000
S	  23.3962000000	  32.2914000000	  23.7571000000
O	  22.1497000000	  33.0213000000	  23.9768000000
O	  24.0620000000	  32.7066000000	  22.5318000000
C	  22.8730000000	  30.5498000000	  23.4050000000
F	  23.8810000000	  29.7709000000	  23.3406000000
F	  22.1784000000	  30.3502000000	  22.2912000000
F	  22.0812000000	  30.1041000000	  24.3734000000
S	  25.6383000000	  32.2626000000	  25.4139000000
O	  26.2824000000	  33.0738000000	  24.4501000000
O	  26.3028000000	  31.0552000000	  25.8889000000
C	  25.4938000000	  33.2954000000	  26.9348000000
F	  26.7044000000	  33.8428000000	  27.2030000000
F	  24.7203000000	  34.3061000000	  26.7648000000
F	  25.0792000000	  32.6645000000	  28.0503000000
43

Li	  25.4199000000	  33.3585000000	  21.2856000000
O	  24.6813000000	  33.4269000000	  19.6081000000
O	  23.2548000000	  32.6512000000	  18.1350000000
C	  25.4029000000	  33.3968000000	  18.3997000000
C	  24.6034000000	  32.2986000000	  17.6525000000
C	  23.4331000000	  32.8282000000	  19.4749000000
H	  25.2782000000	  34.3424000000	  17.8064000000
H	  26.4657000000	  33.1748000000	  18.4260000000
H	  24.6067000000	  32.3740000000	  16.5786000000
H	  24.8678000000	  31.3340000000	  17.9479000000
H	  23.5951000000	  31.8067000000	  19.7329000000
H	  22.5042000000	  33.3035000000	  19.8688000000
O	  27.1613000000	  32.9500000000	  20.9568000000
C	  27.5280000000	  31.4831000000	  20.7601000000
C	  28.5396000000	  31.1668000000	  21.9215000000
C	  28.8991000000	  32.5520000000	  22.3874000000
C	  28.3769000000	  33.5501000000	  21.3723000000
C	  26.3483000000	  30.5409000000	  21.0143000000
H	  27.9022000000	  31.3214000000	  19.7886000000
H	  28.0522000000	  30.7136000000	  22.8675000000
H	  29.4345000000	  30.6014000000	  21.7037000000
H	  28.3169000000	  32.8059000000	  23.2890000000
H	  29.9068000000	  32.5905000000	  22.6585000000
H	  29.1074000000	  33.7562000000	  20.5531000000
H	  27.9704000000	  34.4803000000	  21.8310000000
H	  25.9170000000	  30.5917000000	  22.0117000000
H	  25.5705000000	  30.6684000000	  20.2761000000
H	  26.7151000000	  29.4714000000	  20.8872000000
N	  24.1351000000	  32.0784000000	  25.1141000000
S	  23.3962000000	  32.2914000000	  23.7571000000
O	  22.1497000000	  33.0213000000	  23.9768000000
O	  24.0620000000	  32.7066000000	  22.5318000000
C	  22.8730000000	  30.5498000000	  23.4050000000
F	  23.8810000000	  29.7709000000	  23.3406000000
F	  22.1784000000	  30.3502000000	  22.2912000000
F	  22.0812000000	  30.1041000000	  24.3734000000
S	  25.6383000000	  32.2626000000	  25.4139000000
O	  26.2824000000	  33.0738000000	  24.4501000000
O	  26.3028000000	  31.0552000000	  25.8889000000
C	  25.4938000000	  33.2954000000	  26.9348000000
F	  26.7044000000	  33.8428000000	  27.2030000000
F	  24.7203000000	  34.3061000000	  26.7648000000
F	  25.0792000000	  32.6645000000	  28.0503000000
