55

Li	  11.7413000000	   3.2146600000	  21.5553000000
O	  11.5809000000	  -0.0667036761	  19.6149000000
O	  11.8946000000	   2.1042400000	  20.0944000000
C	  12.8901000000	   0.0762963239	  19.3838000000
C	  13.1637000000	   1.4966400000	  19.9729000000
C	  11.0858000000	   1.2372900000	  19.3739000000
H	  13.5482000000	  -0.7070036761	  19.8428000000
H	  12.9195000000	   0.0200963239	  18.2850000000
H	  13.6251000000	   1.3078800000	  20.9733000000
H	  13.8823000000	   2.0518500000	  19.3615000000
H	  10.9962000000	   1.5519200000	  18.3246000000
H	  10.0226000000	   1.2969600000	  19.7247000000
O	  11.0796000000	   2.0019300000	  23.2326000000
O	  11.9219000000	   0.4844963239	  24.5910000000
C	  10.3385000000	   0.8063963239	  23.0380000000
C	  11.2790000000	  -0.1740036761	  23.5070000000
C	  11.5680000000	   1.8241500000	  24.5019000000
H	   9.4308800000	   0.7257963239	  23.6731000000
H	  10.0727000000	   0.5555963239	  22.0133000000
H	  10.8664000000	  -1.1712036761	  23.7844000000
H	  12.1632000000	  -0.3511036761	  22.9308000000
H	  12.5407000000	   2.3943300000	  24.7313000000
H	  10.8880000000	   2.2331300000	  25.1762000000
O	  13.4037000000	   4.0240300000	  21.6816000000
C	  14.4712000000	   3.6887200000	  22.5313000000
C	  15.7934000000	   3.6613800000	  21.7018000000
C	  15.4443000000	   4.4718200000	  20.4797000000
C	  14.0121000000	   4.9530700000	  20.7706000000
C	  14.5067000000	   4.6403000000	  23.7437000000
H	  14.2796000000	   2.7303200000	  22.9588000000
H	  16.5617000000	   4.1783700000	  22.3383000000
H	  16.0583000000	   2.6517000000	  21.4143000000
H	  16.1223000000	   5.3768300000	  20.3113000000
H	  15.5031000000	   3.8127100000	  19.6202000000
H	  13.4522000000	   5.0691800000	  19.8749000000
H	  14.0347000000	   5.9754600000	  21.0997000000
H	  15.2286000000	   4.2648100000	  24.4303000000
H	  14.7038000000	   5.6679100000	  23.4291000000
H	  13.5163000000	   4.6257700000	  24.2017000000
O	  10.3864000000	   4.5204200000	  21.7105000000
C	  10.3248000000	   5.8786900000	  21.7824000000
C	   9.0050900000	   6.3424200000	  21.1283000000
C	   8.1116000000	   5.0808700000	  21.2565000000
C	   9.0854000000	   4.0636400000	  21.9567000000
C	  10.6416000000	   6.3762700000	  23.1763000000
H	  11.1722000000	   6.2158600000	  21.2000000000
H	   8.7247600000	   7.2938300000	  21.5309000000
H	   9.1471000000	   6.4869100000	  20.0326000000
H	   7.2233100000	   5.1623300000	  21.8486000000
H	   7.8210300000	   4.8229300000	  20.2654000000
H	   9.0655500000	   3.0818000000	  21.4903000000
H	   8.8815300000	   3.8556100000	  22.9951000000
H	   9.9403900000	   5.8943700000	  23.9287000000
H	  11.7089000000	   6.2568000000	  23.4225000000
H	  10.5422000000	   7.4145800000	  23.2783000000
55

Li	  11.7413000000	   3.2146600000	  21.5553000000
O	  11.5809000000	  -0.0667036761	  19.6149000000
O	  11.8946000000	   2.1042400000	  20.0944000000
C	  12.8901000000	   0.0762963239	  19.3838000000
C	  13.1637000000	   1.4966400000	  19.9729000000
C	  11.0858000000	   1.2372900000	  19.3739000000
H	  13.5482000000	  -0.7070036761	  19.8428000000
H	  12.9195000000	   0.0200963239	  18.2850000000
H	  13.6251000000	   1.3078800000	  20.9733000000
H	  13.8823000000	   2.0518500000	  19.3615000000
H	  10.9962000000	   1.5519200000	  18.3246000000
H	  10.0226000000	   1.2969600000	  19.7247000000
O	  11.0796000000	   2.0019300000	  23.2326000000
O	  11.9219000000	   0.4844963239	  24.5910000000
C	  10.3385000000	   0.8063963239	  23.0380000000
C	  11.2790000000	  -0.1740036761	  23.5070000000
C	  11.5680000000	   1.8241500000	  24.5019000000
H	   9.4308800000	   0.7257963239	  23.6731000000
H	  10.0727000000	   0.5555963239	  22.0133000000
H	  10.8664000000	  -1.1712036761	  23.7844000000
H	  12.1632000000	  -0.3511036761	  22.9308000000
H	  12.5407000000	   2.3943300000	  24.7313000000
H	  10.8880000000	   2.2331300000	  25.1762000000
O	  13.4037000000	   4.0240300000	  21.6816000000
C	  14.4712000000	   3.6887200000	  22.5313000000
C	  15.7934000000	   3.6613800000	  21.7018000000
C	  15.4443000000	   4.4718200000	  20.4797000000
C	  14.0121000000	   4.9530700000	  20.7706000000
C	  14.5067000000	   4.6403000000	  23.7437000000
H	  14.2796000000	   2.7303200000	  22.9588000000
H	  16.5617000000	   4.1783700000	  22.3383000000
H	  16.0583000000	   2.6517000000	  21.4143000000
H	  16.1223000000	   5.3768300000	  20.3113000000
H	  15.5031000000	   3.8127100000	  19.6202000000
H	  13.4522000000	   5.0691800000	  19.8749000000
H	  14.0347000000	   5.9754600000	  21.0997000000
H	  15.2286000000	   4.2648100000	  24.4303000000
H	  14.7038000000	   5.6679100000	  23.4291000000
H	  13.5163000000	   4.6257700000	  24.2017000000
O	  10.3864000000	   4.5204200000	  21.7105000000
C	  10.3248000000	   5.8786900000	  21.7824000000
C	   9.0050900000	   6.3424200000	  21.1283000000
C	   8.1116000000	   5.0808700000	  21.2565000000
C	   9.0854000000	   4.0636400000	  21.9567000000
C	  10.6416000000	   6.3762700000	  23.1763000000
H	  11.1722000000	   6.2158600000	  21.2000000000
H	   8.7247600000	   7.2938300000	  21.5309000000
H	   9.1471000000	   6.4869100000	  20.0326000000
H	   7.2233100000	   5.1623300000	  21.8486000000
H	   7.8210300000	   4.8229300000	  20.2654000000
H	   9.0655500000	   3.0818000000	  21.4903000000
H	   8.8815300000	   3.8556100000	  22.9951000000
H	   9.9403900000	   5.8943700000	  23.9287000000
H	  11.7089000000	   6.2568000000	  23.4225000000
H	  10.5422000000	   7.4145800000	  23.2783000000
