32

Li	  28.5597000000	  19.4704000000	  55.9447000000
N	  29.4740000000	  21.3447000000	  52.2722000000
S	  29.2307000000	  19.8628000000	  52.7271000000
O	  30.1657000000	  18.8950000000	  52.1459000000
O	  28.7916000000	  19.6540000000	  54.0952000000
C	  27.6480000000	  19.4734000000	  51.7892000000
F	  27.7765000000	  19.9519000000	  50.5725000000
F	  26.5607000000	  20.0831000000	  52.2581000000
F	  27.3759000000	  18.2140000000	  51.7378000000
S	  30.8302000000	  22.1475000000	  52.2916000000
O	  30.8251000000	  23.1394000000	  51.2421000000
O	  32.0683000000	  21.4387000000	  52.4851000000
C	  30.7164000000	  23.0295000000	  53.8103000000
F	  31.8522000000	  23.3138000000	  54.3432000000
F	  30.1009000000	  24.1840000000	  53.6686000000
F	  29.9922000000	  22.3993000000	  54.7024000000
S	  24.3415000000	  10.9163000000	  59.1061014259
S	  25.0493000000	  12.2454000000	  60.5345814259
S	  25.3420000000	  14.1641000000	  59.6254214259
S	  24.8057000000	  18.6450000000	  59.1560614259
S	  26.5593000000	  18.7332000000	  57.7720000000
S	  26.6258000000	  20.4898000000	  56.5630000000
S	  23.6029000000	  17.0091000000	  58.9523000000
S	  24.0371000000	  15.5607000000	  60.4561614259
S	  30.1297000000	  18.4905000000	  56.7165000000
S	  30.9359000000	  20.3343000000	  57.3126000000
S	  29.5887000000	  21.4155000000	  58.4731000000
S	  27.1844000000	  23.1830000000	  62.1528314259
S	  27.7255000000	  23.7107000000	  64.1429614259
S	  27.0352000000	  25.6850000000	  64.7129414259
S	  28.1616000000	  21.3558000000	  61.6043014259
S	  29.9687000000	  21.6084000000	  60.4975014259
32

Li	  28.5597000000	  19.4704000000	  55.9447000000
N	  29.4740000000	  21.3447000000	  52.2722000000
S	  29.2307000000	  19.8628000000	  52.7271000000
O	  30.1657000000	  18.8950000000	  52.1459000000
O	  28.7916000000	  19.6540000000	  54.0952000000
C	  27.6480000000	  19.4734000000	  51.7892000000
F	  27.7765000000	  19.9519000000	  50.5725000000
F	  26.5607000000	  20.0831000000	  52.2581000000
F	  27.3759000000	  18.2140000000	  51.7378000000
S	  30.8302000000	  22.1475000000	  52.2916000000
O	  30.8251000000	  23.1394000000	  51.2421000000
O	  32.0683000000	  21.4387000000	  52.4851000000
C	  30.7164000000	  23.0295000000	  53.8103000000
F	  31.8522000000	  23.3138000000	  54.3432000000
F	  30.1009000000	  24.1840000000	  53.6686000000
F	  29.9922000000	  22.3993000000	  54.7024000000
S	  24.3415000000	  10.9163000000	  59.1061014259
S	  25.0493000000	  12.2454000000	  60.5345814259
S	  25.3420000000	  14.1641000000	  59.6254214259
S	  24.8057000000	  18.6450000000	  59.1560614259
S	  26.5593000000	  18.7332000000	  57.7720000000
S	  26.6258000000	  20.4898000000	  56.5630000000
S	  23.6029000000	  17.0091000000	  58.9523000000
S	  24.0371000000	  15.5607000000	  60.4561614259
S	  30.1297000000	  18.4905000000	  56.7165000000
S	  30.9359000000	  20.3343000000	  57.3126000000
S	  29.5887000000	  21.4155000000	  58.4731000000
S	  27.1844000000	  23.1830000000	  62.1528314259
S	  27.7255000000	  23.7107000000	  64.1429614259
S	  27.0352000000	  25.6850000000	  64.7129414259
S	  28.1616000000	  21.3558000000	  61.6043014259
S	  29.9687000000	  21.6084000000	  60.4975014259
