60

Li	  15.6085000000	  34.5107000000	  42.4357000000
O	  16.5668000000	  32.9771000000	  42.3107000000
O	  18.4922000000	  32.0192000000	  41.5768000000
C	  16.2264000000	  31.6809000000	  41.8540000000
C	  17.5317000000	  30.9671000000	  41.6187000000
C	  17.9730000000	  32.9384000000	  42.5473000000
H	  15.8013000000	  31.1157000000	  42.6204000000
H	  15.5356000000	  31.6026000000	  41.0093000000
H	  17.6637000000	  30.3118000000	  42.4486000000
H	  17.4859000000	  30.2658000000	  40.8380000000
H	  18.4452000000	  33.9052000000	  42.2520000000
H	  18.1054000000	  32.6433000000	  43.6083000000
O	  14.8464000000	  34.6141000000	  40.7719000000
C	  13.3778000000	  34.6828000000	  40.4940000000
C	  13.2481000000	  34.7942000000	  39.0161000000
C	  14.6636000000	  35.1483000000	  38.5707000000
C	  15.5845000000	  34.4223000000	  39.6045000000
C	  12.6040000000	  33.5527000000	  41.1054000000
H	  13.0565000000	  35.6424000000	  40.9967000000
H	  12.8442000000	  33.8422000000	  38.5520000000
H	  12.5083000000	  35.6058000000	  38.7218000000
H	  14.8040000000	  34.8343000000	  37.5663000000
H	  14.7511000000	  36.2819000000	  38.5859000000
H	  16.4996000000	  34.9839000000	  39.6375000000
H	  15.6743000000	  33.3325000000	  39.5103000000
H	  13.0285000000	  32.5930000000	  40.8092000000
H	  12.6618000000	  33.6097000000	  42.1777000000
H	  11.6021000000	  33.5957000000	  40.8065000000
O	  16.7685000000	  36.2047000000	  42.8130000000
C	  17.6475000000	  36.7437000000	  43.7873000000
C	  17.3768000000	  38.2113000000	  43.8284000000
C	  16.8862000000	  38.5344000000	  42.3442000000
C	  16.7544000000	  37.0943000000	  41.7544000000
C	  17.3935000000	  36.0193000000	  45.1501000000
H	  18.6624000000	  36.5894000000	  43.4533000000
H	  16.4916000000	  38.5031000000	  44.5056000000
H	  18.1871000000	  38.8405000000	  44.0518000000
H	  15.9397000000	  39.1299000000	  42.4642000000
H	  17.7876000000	  39.1265000000	  41.9783000000
H	  17.5036000000	  36.8759000000	  40.9734000000
H	  15.7720000000	  37.0969000000	  41.2098000000
H	  17.6602000000	  34.9848000000	  44.9023000000
H	  18.0906000000	  36.2724000000	  45.9964000000
H	  16.3699000000	  36.1104000000	  45.4993000000
O	  14.5202000000	  34.6329000000	  43.9928000000
C	  13.4743000000	  35.2923000000	  44.5854000000
C	  13.6250000000	  34.8395000000	  46.0449000000
C	  14.2190000000	  33.4421000000	  45.9598000000
C	  14.6377000000	  33.2835000000	  44.5522000000
C	  13.5108000000	  36.8073000000	  44.2281000000
H	  12.5471000000	  34.9100000000	  44.2519000000
H	  14.4167000000	  35.4469000000	  46.5311000000
H	  12.7783000000	  35.0455000000	  46.5985000000
H	  15.1345000000	  33.3736000000	  46.5636000000
H	  13.4813000000	  32.7455000000	  46.1980000000
H	  13.9895000000	  32.7622000000	  43.8952000000
H	  15.6442000000	  32.9097000000	  44.3674000000
H	  12.7522000000	  37.4647000000	  44.7656000000
H	  14.5079000000	  37.1661000000	  44.4721000000
H	  13.3829000000	  36.7809000000	  43.1945000000
60

Li	  15.6085000000	  34.5107000000	  42.4357000000
O	  16.5668000000	  32.9771000000	  42.3107000000
O	  18.4922000000	  32.0192000000	  41.5768000000
C	  16.2264000000	  31.6809000000	  41.8540000000
C	  17.5317000000	  30.9671000000	  41.6187000000
C	  17.9730000000	  32.9384000000	  42.5473000000
H	  15.8013000000	  31.1157000000	  42.6204000000
H	  15.5356000000	  31.6026000000	  41.0093000000
H	  17.6637000000	  30.3118000000	  42.4486000000
H	  17.4859000000	  30.2658000000	  40.8380000000
H	  18.4452000000	  33.9052000000	  42.2520000000
H	  18.1054000000	  32.6433000000	  43.6083000000
O	  14.8464000000	  34.6141000000	  40.7719000000
C	  13.3778000000	  34.6828000000	  40.4940000000
C	  13.2481000000	  34.7942000000	  39.0161000000
C	  14.6636000000	  35.1483000000	  38.5707000000
C	  15.5845000000	  34.4223000000	  39.6045000000
C	  12.6040000000	  33.5527000000	  41.1054000000
H	  13.0565000000	  35.6424000000	  40.9967000000
H	  12.8442000000	  33.8422000000	  38.5520000000
H	  12.5083000000	  35.6058000000	  38.7218000000
H	  14.8040000000	  34.8343000000	  37.5663000000
H	  14.7511000000	  36.2819000000	  38.5859000000
H	  16.4996000000	  34.9839000000	  39.6375000000
H	  15.6743000000	  33.3325000000	  39.5103000000
H	  13.0285000000	  32.5930000000	  40.8092000000
H	  12.6618000000	  33.6097000000	  42.1777000000
H	  11.6021000000	  33.5957000000	  40.8065000000
O	  16.7685000000	  36.2047000000	  42.8130000000
C	  17.6475000000	  36.7437000000	  43.7873000000
C	  17.3768000000	  38.2113000000	  43.8284000000
C	  16.8862000000	  38.5344000000	  42.3442000000
C	  16.7544000000	  37.0943000000	  41.7544000000
C	  17.3935000000	  36.0193000000	  45.1501000000
H	  18.6624000000	  36.5894000000	  43.4533000000
H	  16.4916000000	  38.5031000000	  44.5056000000
H	  18.1871000000	  38.8405000000	  44.0518000000
H	  15.9397000000	  39.1299000000	  42.4642000000
H	  17.7876000000	  39.1265000000	  41.9783000000
H	  17.5036000000	  36.8759000000	  40.9734000000
H	  15.7720000000	  37.0969000000	  41.2098000000
H	  17.6602000000	  34.9848000000	  44.9023000000
H	  18.0906000000	  36.2724000000	  45.9964000000
H	  16.3699000000	  36.1104000000	  45.4993000000
O	  14.5202000000	  34.6329000000	  43.9928000000
C	  13.4743000000	  35.2923000000	  44.5854000000
C	  13.6250000000	  34.8395000000	  46.0449000000
C	  14.2190000000	  33.4421000000	  45.9598000000
C	  14.6377000000	  33.2835000000	  44.5522000000
C	  13.5108000000	  36.8073000000	  44.2281000000
H	  12.5471000000	  34.9100000000	  44.2519000000
H	  14.4167000000	  35.4469000000	  46.5311000000
H	  12.7783000000	  35.0455000000	  46.5985000000
H	  15.1345000000	  33.3736000000	  46.5636000000
H	  13.4813000000	  32.7455000000	  46.1980000000
H	  13.9895000000	  32.7622000000	  43.8952000000
H	  15.6442000000	  32.9097000000	  44.3674000000
H	  12.7522000000	  37.4647000000	  44.7656000000
H	  14.5079000000	  37.1661000000	  44.4721000000
H	  13.3829000000	  36.7809000000	  43.1945000000
