48

Li	  14.4275000000	  19.2502000000	  15.3742000000
O	  13.0096000000	  20.1728000000	  14.6091000000
C	  11.9981000000	  19.7851000000	  13.6349000000
C	  11.9486000000	  20.9420000000	  12.5647000000
C	  12.3708000000	  22.1421000000	  13.4122000000
C	  12.9233000000	  21.5532000000	  14.7545000000
C	  12.4074000000	  18.4605000000	  13.0378000000
H	  11.0346000000	  19.6858000000	  14.1795000000
H	  12.7102000000	  20.8218000000	  11.7524000000
H	  10.9874000000	  21.2302000000	  12.1014000000
H	  13.1946000000	  22.6232000000	  12.9097000000
H	  11.6050000000	  22.8576000000	  13.6469000000
H	  12.2166000000	  21.8443000000	  15.4885000000
H	  13.9285000000	  21.8827000000	  14.9651000000
H	  13.3296000000	  18.6470000000	  12.4582000000
H	  12.5300000000	  17.6402000000	  13.7578000000
H	  11.6613000000	  18.2070000000	  12.2841000000
O	  14.2171000000	  18.9585000000	  17.1945000000
C	  13.3618000000	  18.0988000000	  17.9060000000
C	  12.5536000000	  18.9518000000	  18.7746000000
C	  12.9915000000	  20.3605000000	  18.5028000000
C	  14.3764000000	  20.2137000000	  17.8639000000
C	  12.4744000000	  17.3963000000	  16.7404000000
H	  13.9372000000	  17.3644000000	  18.5099000000
H	  11.4527000000	  18.7941000000	  18.5353000000
H	  12.9167000000	  18.6805000000	  19.7986000000
H	  12.4712000000	  20.8327000000	  17.6753000000
H	  13.0658000000	  21.1144000000	  19.3728000000
H	  15.0742000000	  20.1671000000	  18.7132000000
H	  14.5762000000	  21.1047000000	  17.2269000000
H	  12.1067000000	  18.1396000000	  16.0247000000
H	  13.0161000000	  16.5606000000	  16.3471000000
H	  11.5559000000	  16.9583000000	  17.1055000000
N	  17.4315000000	  17.8198000000	  14.1344000000
S	  16.0515000000	  17.2143000000	  13.7160000000
O	  15.0499000000	  17.3717000000	  14.7340000000
O	  15.7402000000	  17.4284000000	  12.3118000000
C	  16.3570000000	  15.3944000000	  13.8177000000
F	  17.1858000000	  15.0251000000	  12.8522000000
F	  15.2621000000	  14.7417000000	  13.5406000000
F	  16.8206000000	  15.0522000000	  14.9359000000
S	  17.7540000000	  19.2051000000	  14.8049000000
O	  16.5656000000	  19.8906000000	  15.3404000000
O	  18.6829000000	  20.0217000000	  14.0342000000
C	  18.7048000000	  18.6550000000	  16.2617000000
F	  19.3113000000	  17.5053000000	  16.0105000000
F	  19.5297000000	  19.5748000000	  16.6635000000
F	  18.0242000000	  18.4594000000	  17.3749000000
48

Li	  14.4275000000	  19.2502000000	  15.3742000000
O	  13.0096000000	  20.1728000000	  14.6091000000
C	  11.9981000000	  19.7851000000	  13.6349000000
C	  11.9486000000	  20.9420000000	  12.5647000000
C	  12.3708000000	  22.1421000000	  13.4122000000
C	  12.9233000000	  21.5532000000	  14.7545000000
C	  12.4074000000	  18.4605000000	  13.0378000000
H	  11.0346000000	  19.6858000000	  14.1795000000
H	  12.7102000000	  20.8218000000	  11.7524000000
H	  10.9874000000	  21.2302000000	  12.1014000000
H	  13.1946000000	  22.6232000000	  12.9097000000
H	  11.6050000000	  22.8576000000	  13.6469000000
H	  12.2166000000	  21.8443000000	  15.4885000000
H	  13.9285000000	  21.8827000000	  14.9651000000
H	  13.3296000000	  18.6470000000	  12.4582000000
H	  12.5300000000	  17.6402000000	  13.7578000000
H	  11.6613000000	  18.2070000000	  12.2841000000
O	  14.2171000000	  18.9585000000	  17.1945000000
C	  13.3618000000	  18.0988000000	  17.9060000000
C	  12.5536000000	  18.9518000000	  18.7746000000
C	  12.9915000000	  20.3605000000	  18.5028000000
C	  14.3764000000	  20.2137000000	  17.8639000000
C	  12.4744000000	  17.3963000000	  16.7404000000
H	  13.9372000000	  17.3644000000	  18.5099000000
H	  11.4527000000	  18.7941000000	  18.5353000000
H	  12.9167000000	  18.6805000000	  19.7986000000
H	  12.4712000000	  20.8327000000	  17.6753000000
H	  13.0658000000	  21.1144000000	  19.3728000000
H	  15.0742000000	  20.1671000000	  18.7132000000
H	  14.5762000000	  21.1047000000	  17.2269000000
H	  12.1067000000	  18.1396000000	  16.0247000000
H	  13.0161000000	  16.5606000000	  16.3471000000
H	  11.5559000000	  16.9583000000	  17.1055000000
N	  17.4315000000	  17.8198000000	  14.1344000000
S	  16.0515000000	  17.2143000000	  13.7160000000
O	  15.0499000000	  17.3717000000	  14.7340000000
O	  15.7402000000	  17.4284000000	  12.3118000000
C	  16.3570000000	  15.3944000000	  13.8177000000
F	  17.1858000000	  15.0251000000	  12.8522000000
F	  15.2621000000	  14.7417000000	  13.5406000000
F	  16.8206000000	  15.0522000000	  14.9359000000
S	  17.7540000000	  19.2051000000	  14.8049000000
O	  16.5656000000	  19.8906000000	  15.3404000000
O	  18.6829000000	  20.0217000000	  14.0342000000
C	  18.7048000000	  18.6550000000	  16.2617000000
F	  19.3113000000	  17.5053000000	  16.0105000000
F	  19.5297000000	  19.5748000000	  16.6635000000
F	  18.0242000000	  18.4594000000	  17.3749000000
