28

Li	  30.3470000000	  14.8927000000	  55.3127000000
O	  31.2137000000	  11.2868000000	  56.7749000000
O	  30.7040000000	  13.0745000000	  55.6204000000
C	  30.5710000000	  10.7513000000	  55.6436000000
C	  30.3271000000	  11.9847000000	  54.7454000000
C	  31.6703000000	  12.5482000000	  56.4947000000
H	  31.2239000000	  10.0601000000	  55.1449000000
H	  29.5341000000	  10.3923000000	  55.7787000000
H	  31.0526000000	  11.9571000000	  53.9495000000
H	  29.3728000000	  12.0983000000	  54.3532000000
H	  31.8573000000	  13.1953000000	  57.3055000000
H	  32.5826000000	  12.4453000000	  55.8748000000
S	  21.7481000000	   7.9084300000	  54.8070000000
S	  23.1673000000	   8.9516300000	  56.0602000000
S	  23.6061000000	  10.8607000000	  55.4256000000
S	  28.0916000000	  13.5787000000	  57.1963000000
S	  28.0666000000	  15.4378000000	  56.2092000000
S	  28.6035000000	  15.2805000000	  54.1548000000
S	  26.1345000000	  12.8027000000	  57.2195000000
S	  25.7742000000	  11.4011000000	  55.6939000000
S	  32.1346000000	  16.0002000000	  54.8706000000
S	  31.4137000000	  16.5855000000	  56.8299000000
S	  30.3225000000	  18.3973000000	  56.6541000000
S	  28.3806000000	  22.3346000000	  58.9309000000
S	  29.0831000000	  23.8902000000	  60.2621414259
S	  27.5196000000	  25.1912000000	  60.7808414259
S	  29.6691000000	  20.7376000000	  59.0463514259
S	  29.0476000000	  18.9836000000	  58.1627000000
28

Li	  30.3470000000	  14.8927000000	  55.3127000000
O	  31.2137000000	  11.2868000000	  56.7749000000
O	  30.7040000000	  13.0745000000	  55.6204000000
C	  30.5710000000	  10.7513000000	  55.6436000000
C	  30.3271000000	  11.9847000000	  54.7454000000
C	  31.6703000000	  12.5482000000	  56.4947000000
H	  31.2239000000	  10.0601000000	  55.1449000000
H	  29.5341000000	  10.3923000000	  55.7787000000
H	  31.0526000000	  11.9571000000	  53.9495000000
H	  29.3728000000	  12.0983000000	  54.3532000000
H	  31.8573000000	  13.1953000000	  57.3055000000
H	  32.5826000000	  12.4453000000	  55.8748000000
S	  21.7481000000	   7.9084300000	  54.8070000000
S	  23.1673000000	   8.9516300000	  56.0602000000
S	  23.6061000000	  10.8607000000	  55.4256000000
S	  28.0916000000	  13.5787000000	  57.1963000000
S	  28.0666000000	  15.4378000000	  56.2092000000
S	  28.6035000000	  15.2805000000	  54.1548000000
S	  26.1345000000	  12.8027000000	  57.2195000000
S	  25.7742000000	  11.4011000000	  55.6939000000
S	  32.1346000000	  16.0002000000	  54.8706000000
S	  31.4137000000	  16.5855000000	  56.8299000000
S	  30.3225000000	  18.3973000000	  56.6541000000
S	  28.3806000000	  22.3346000000	  58.9309000000
S	  29.0831000000	  23.8902000000	  60.2621414259
S	  27.5196000000	  25.1912000000	  60.7808414259
S	  29.6691000000	  20.7376000000	  59.0463514259
S	  29.0476000000	  18.9836000000	  58.1627000000
