44

Li	  13.0375000000	  29.4564000000	  11.0724000000
O	  13.6987000000	  30.6100000000	  12.3013000000
O	  15.6444000000	  30.6633000000	  13.4802000000
C	  14.0743000000	  31.9752000000	  12.4408000000
C	  15.5059000000	  31.7766000000	  12.6276000000
C	  14.6065000000	  29.8999000000	  13.1267000000
H	  13.8141000000	  32.5458000000	  11.5526000000
H	  13.6770000000	  32.4880000000	  13.3927000000
H	  15.9408000000	  31.4614000000	  11.6749000000
H	  16.0426000000	  32.6663000000	  12.8851000000
H	  14.0501000000	  29.4199000000	  13.9448000000
H	  15.0646000000	  29.0675000000	  12.5807000000
O	  11.6109000000	  30.0836000000	  10.2565000000
C	  10.7260000000	  31.1633000000	  10.1902000000
C	   9.3729900000	  30.4943000000	   9.9326300000
C	   9.6973300000	  29.1707000000	   9.2580800000
C	  11.2120000000	  29.2581000000	   9.1823100000
C	  10.7949000000	  32.0137000000	  11.4174000000
H	  10.9650000000	  31.7501000000	   9.3698600000
H	   8.7277800000	  30.2880000000	  10.7735000000
H	   8.7128000000	  30.9896000000	   9.2681600000
H	   9.3120000000	  28.3154000000	   9.8249700000
H	   9.1264800000	  29.1383000000	   8.2974800000
H	  11.5326000000	  29.7140000000	   8.3199500000
H	  11.5662000000	  28.2658000000	   9.2720100000
H	  10.0036000000	  32.7584000000	  11.3062000000
H	  10.7959000000	  31.4635000000	  12.4006000000
H	  11.7180000000	  32.5544000000	  11.3757000000
O	  14.4934000000	  29.4981000000	  10.0998000000
C	  15.1435000000	  28.3288000000	   9.5804300000
C	  15.9275000000	  28.7733000000	   8.3804600000
C	  15.2666000000	  30.1605000000	   7.9751900000
C	  14.6407000000	  30.6670000000	   9.2633900000
C	  16.0129000000	  27.5927000000	  10.5828000000
H	  14.4316000000	  27.5311000000	   9.1436500000
H	  17.0131000000	  28.9796000000	   8.5838900000
H	  15.8224000000	  27.9566000000	   7.6605400000
H	  16.0064000000	  30.9244000000	   7.6687600000
H	  14.5728000000	  29.9573000000	   7.1539700000
H	  13.7714000000	  31.3026000000	   9.1632100000
H	  15.2658000000	  31.4180000000	   9.7535900000
H	  16.7128000000	  26.9913000000	  10.0843000000
H	  16.6508000000	  28.3252000000	  11.1601000000
H	  15.4599000000	  26.9647000000	  11.2365000000
44

Li	  13.0375000000	  29.4564000000	  11.0724000000
O	  13.6987000000	  30.6100000000	  12.3013000000
O	  15.6444000000	  30.6633000000	  13.4802000000
C	  14.0743000000	  31.9752000000	  12.4408000000
C	  15.5059000000	  31.7766000000	  12.6276000000
C	  14.6065000000	  29.8999000000	  13.1267000000
H	  13.8141000000	  32.5458000000	  11.5526000000
H	  13.6770000000	  32.4880000000	  13.3927000000
H	  15.9408000000	  31.4614000000	  11.6749000000
H	  16.0426000000	  32.6663000000	  12.8851000000
H	  14.0501000000	  29.4199000000	  13.9448000000
H	  15.0646000000	  29.0675000000	  12.5807000000
O	  11.6109000000	  30.0836000000	  10.2565000000
C	  10.7260000000	  31.1633000000	  10.1902000000
C	   9.3729900000	  30.4943000000	   9.9326300000
C	   9.6973300000	  29.1707000000	   9.2580800000
C	  11.2120000000	  29.2581000000	   9.1823100000
C	  10.7949000000	  32.0137000000	  11.4174000000
H	  10.9650000000	  31.7501000000	   9.3698600000
H	   8.7277800000	  30.2880000000	  10.7735000000
H	   8.7128000000	  30.9896000000	   9.2681600000
H	   9.3120000000	  28.3154000000	   9.8249700000
H	   9.1264800000	  29.1383000000	   8.2974800000
H	  11.5326000000	  29.7140000000	   8.3199500000
H	  11.5662000000	  28.2658000000	   9.2720100000
H	  10.0036000000	  32.7584000000	  11.3062000000
H	  10.7959000000	  31.4635000000	  12.4006000000
H	  11.7180000000	  32.5544000000	  11.3757000000
O	  14.4934000000	  29.4981000000	  10.0998000000
C	  15.1435000000	  28.3288000000	   9.5804300000
C	  15.9275000000	  28.7733000000	   8.3804600000
C	  15.2666000000	  30.1605000000	   7.9751900000
C	  14.6407000000	  30.6670000000	   9.2633900000
C	  16.0129000000	  27.5927000000	  10.5828000000
H	  14.4316000000	  27.5311000000	   9.1436500000
H	  17.0131000000	  28.9796000000	   8.5838900000
H	  15.8224000000	  27.9566000000	   7.6605400000
H	  16.0064000000	  30.9244000000	   7.6687600000
H	  14.5728000000	  29.9573000000	   7.1539700000
H	  13.7714000000	  31.3026000000	   9.1632100000
H	  15.2658000000	  31.4180000000	   9.7535900000
H	  16.7128000000	  26.9913000000	  10.0843000000
H	  16.6508000000	  28.3252000000	  11.1601000000
H	  15.4599000000	  26.9647000000	  11.2365000000
