35

Li	  48.4187000000	  44.5793000000	  34.0369000000
O	  46.6282000000	  44.6784000000	  33.6368000000
O	  44.7913000000	  45.6738000000	  34.3695000000
C	  46.0556000000	  45.2640000000	  32.4473000000
C	  44.6892000000	  45.7788000000	  32.9155000000
C	  45.6626000000	  44.6366000000	  34.5422000000
H	  46.6824000000	  46.1656000000	  32.1119000000
H	  45.8618000000	  44.3839000000	  31.7730000000
H	  44.4579000000	  46.7887000000	  32.5321000000
H	  43.9067000000	  45.0786000000	  32.6532000000
H	  45.2405000000	  43.6124000000	  34.4546000000
H	  46.0559000000	  44.5709000000	  35.5651000000
N	  50.3464000000	  46.8894000000	  32.4265000000
S	  49.7875000000	  47.3894000000	  33.7964000000
O	  49.1036000000	  48.6426000000	  33.7467000000
O	  49.2700000000	  46.2976000000	  34.5689000000
C	  51.3567000000	  47.9496000000	  34.5529000000
F	  51.4194000000	  47.9408000000	  35.8910000000
F	  51.6632000000	  49.1647000000	  34.1665000000
F	  52.3659000000	  47.2050000000	  34.1643000000
S	  50.2557000000	  45.4923000000	  31.7322000000
O	  49.0824000000	  44.7442000000	  32.1555000000
O	  51.5407000000	  44.8160000000	  31.6055000000
C	  49.8462000000	  45.9913000000	  29.9963000000
F	  50.8054000000	  46.7561000000	  29.5255000000
F	  49.6253000000	  45.0020000000	  29.1536000000
F	  48.7577000000	  46.7102000000	  29.8946000000
S	  48.3353000000	  42.4521000000	  42.6013000000
S	  48.9198000000	  44.4500000000	  43.1598000000
S	  48.8047000000	  45.8176000000	  41.5522000000
S	  50.9274000000	  43.8572000000	  37.5002000000
S	  50.6941000000	  43.5458000000	  35.3111000000
S	  48.9322000000	  42.6710000000	  34.7173000000
S	  50.3058000000	  45.7569000000	  38.3526000000
S	  50.6786000000	  45.9358000000	  40.4752000000
35

Li	  48.4187000000	  44.5793000000	  34.0369000000
O	  46.6282000000	  44.6784000000	  33.6368000000
O	  44.7913000000	  45.6738000000	  34.3695000000
C	  46.0556000000	  45.2640000000	  32.4473000000
C	  44.6892000000	  45.7788000000	  32.9155000000
C	  45.6626000000	  44.6366000000	  34.5422000000
H	  46.6824000000	  46.1656000000	  32.1119000000
H	  45.8618000000	  44.3839000000	  31.7730000000
H	  44.4579000000	  46.7887000000	  32.5321000000
H	  43.9067000000	  45.0786000000	  32.6532000000
H	  45.2405000000	  43.6124000000	  34.4546000000
H	  46.0559000000	  44.5709000000	  35.5651000000
N	  50.3464000000	  46.8894000000	  32.4265000000
S	  49.7875000000	  47.3894000000	  33.7964000000
O	  49.1036000000	  48.6426000000	  33.7467000000
O	  49.2700000000	  46.2976000000	  34.5689000000
C	  51.3567000000	  47.9496000000	  34.5529000000
F	  51.4194000000	  47.9408000000	  35.8910000000
F	  51.6632000000	  49.1647000000	  34.1665000000
F	  52.3659000000	  47.2050000000	  34.1643000000
S	  50.2557000000	  45.4923000000	  31.7322000000
O	  49.0824000000	  44.7442000000	  32.1555000000
O	  51.5407000000	  44.8160000000	  31.6055000000
C	  49.8462000000	  45.9913000000	  29.9963000000
F	  50.8054000000	  46.7561000000	  29.5255000000
F	  49.6253000000	  45.0020000000	  29.1536000000
F	  48.7577000000	  46.7102000000	  29.8946000000
S	  48.3353000000	  42.4521000000	  42.6013000000
S	  48.9198000000	  44.4500000000	  43.1598000000
S	  48.8047000000	  45.8176000000	  41.5522000000
S	  50.9274000000	  43.8572000000	  37.5002000000
S	  50.6941000000	  43.5458000000	  35.3111000000
S	  48.9322000000	  42.6710000000	  34.7173000000
S	  50.3058000000	  45.7569000000	  38.3526000000
S	  50.6786000000	  45.9358000000	  40.4752000000
