44

Li	  33.0441000000	  39.1986000000	  14.7307000000
O	  32.2007000000	  39.5201000000	  18.7484000000
O	  32.4426000000	  39.8447000000	  16.4882000000
C	  31.4098000000	  40.6466000000	  18.4560000000
C	  31.2826000000	  40.5698000000	  16.9708000000
C	  33.0380000000	  39.2482000000	  17.6568000000
H	  30.4196000000	  40.3594000000	  18.8743000000
H	  31.7710000000	  41.6388000000	  18.8490000000
H	  30.3383000000	  40.0848000000	  16.7973000000
H	  31.2426000000	  41.5694000000	  16.4075000000
H	  33.9740000000	  39.7884000000	  17.7663000000
H	  33.2618000000	  38.2122000000	  17.5846000000
O	  35.0616000000	  39.3292000000	  14.3909000000
C	  36.3416000000	  39.5813000000	  14.9641000000
C	  37.3360000000	  39.0145000000	  13.9493000000
C	  36.6936000000	  39.3133000000	  12.6815000000
C	  35.1593000000	  39.5410000000	  12.9702000000
C	  36.5209000000	  41.0694000000	  15.1147000000
H	  36.5168000000	  39.1295000000	  15.9171000000
H	  38.2914000000	  39.5358000000	  14.1286000000
H	  37.4020000000	  37.9314000000	  14.0299000000
H	  37.1838000000	  40.1888000000	  12.3144000000
H	  36.8368000000	  38.4536000000	  12.0574000000
H	  34.5324000000	  38.9364000000	  12.3161000000
H	  34.9254000000	  40.5603000000	  12.7364000000
H	  37.5080000000	  41.2494000000	  15.5072000000
H	  36.4399000000	  41.6673000000	  14.2043000000
H	  35.8339000000	  41.4485000000	  15.9057000000
S	  42.1131000000	  34.1955000000	   7.5669500000
S	  40.3648000000	  33.3927000000	   8.3930200000
S	  38.7289000000	  34.8780000000	   8.4227400000
S	  35.8003000000	  35.5866000000	  12.8364000000
S	  33.7110000000	  35.4753000000	  13.3303000000
S	  33.0494000000	  37.0584000000	  14.5807000000
S	  36.0989000000	  36.0837000000	  10.8296000000
S	  36.9317000000	  34.5004000000	   9.5978300000
S	  31.6710000000	  40.3731000000	  13.2444000000
S	  32.3912000000	  42.3494000000	  12.8038000000
S	  33.5295000000	  43.2127000000	  14.3526000000
S	  29.1784000000	  44.4542000000	  16.3329000000
S	  28.5689000000	  42.6395000000	  15.3523000000
S	  28.7464000000	  42.8958000000	  13.2340000000
S	  31.2896000000	  44.5267000000	  16.7919000000
S	  32.5952000000	  44.9651000000	  15.1412000000
44

Li	  33.0441000000	  39.1986000000	  14.7307000000
O	  32.2007000000	  39.5201000000	  18.7484000000
O	  32.4426000000	  39.8447000000	  16.4882000000
C	  31.4098000000	  40.6466000000	  18.4560000000
C	  31.2826000000	  40.5698000000	  16.9708000000
C	  33.0380000000	  39.2482000000	  17.6568000000
H	  30.4196000000	  40.3594000000	  18.8743000000
H	  31.7710000000	  41.6388000000	  18.8490000000
H	  30.3383000000	  40.0848000000	  16.7973000000
H	  31.2426000000	  41.5694000000	  16.4075000000
H	  33.9740000000	  39.7884000000	  17.7663000000
H	  33.2618000000	  38.2122000000	  17.5846000000
O	  35.0616000000	  39.3292000000	  14.3909000000
C	  36.3416000000	  39.5813000000	  14.9641000000
C	  37.3360000000	  39.0145000000	  13.9493000000
C	  36.6936000000	  39.3133000000	  12.6815000000
C	  35.1593000000	  39.5410000000	  12.9702000000
C	  36.5209000000	  41.0694000000	  15.1147000000
H	  36.5168000000	  39.1295000000	  15.9171000000
H	  38.2914000000	  39.5358000000	  14.1286000000
H	  37.4020000000	  37.9314000000	  14.0299000000
H	  37.1838000000	  40.1888000000	  12.3144000000
H	  36.8368000000	  38.4536000000	  12.0574000000
H	  34.5324000000	  38.9364000000	  12.3161000000
H	  34.9254000000	  40.5603000000	  12.7364000000
H	  37.5080000000	  41.2494000000	  15.5072000000
H	  36.4399000000	  41.6673000000	  14.2043000000
H	  35.8339000000	  41.4485000000	  15.9057000000
S	  42.1131000000	  34.1955000000	   7.5669500000
S	  40.3648000000	  33.3927000000	   8.3930200000
S	  38.7289000000	  34.8780000000	   8.4227400000
S	  35.8003000000	  35.5866000000	  12.8364000000
S	  33.7110000000	  35.4753000000	  13.3303000000
S	  33.0494000000	  37.0584000000	  14.5807000000
S	  36.0989000000	  36.0837000000	  10.8296000000
S	  36.9317000000	  34.5004000000	   9.5978300000
S	  31.6710000000	  40.3731000000	  13.2444000000
S	  32.3912000000	  42.3494000000	  12.8038000000
S	  33.5295000000	  43.2127000000	  14.3526000000
S	  29.1784000000	  44.4542000000	  16.3329000000
S	  28.5689000000	  42.6395000000	  15.3523000000
S	  28.7464000000	  42.8958000000	  13.2340000000
S	  31.2896000000	  44.5267000000	  16.7919000000
S	  32.5952000000	  44.9651000000	  15.1412000000
