25

Li	   5.1560400000	  19.8038000000	  42.9811000000
O	   3.5608900000	  18.9061000000	  42.8530000000
C	   2.3222300000	  18.9128000000	  42.1287000000
C	   1.5266800000	  17.6521000000	  42.5761000000
C	   2.3072200000	  17.2284000000	  43.7837000000
C	   3.2174500000	  18.3698000000	  44.1506000000
C	   1.5045100000	  20.2517000000	  42.2142000000
H	   2.5103800000	  18.7132000000	  41.0898000000
H	   0.4691641015	  17.9243000000	  42.8211000000
H	   1.4359900000	  16.8505000000	  41.7951000000
H	   1.7703300000	  16.9061000000	  44.6530000000
H	   2.8530000000	  16.3433000000	  43.5901000000
H	   4.0952500000	  18.0846000000	  44.7374000000
H	   2.7463900000	  19.0970000000	  44.7434000000
H	   2.0514600000	  21.1546000000	  41.9852000000
H	   0.7957641015	  20.1328000000	  41.4016000000
H	   0.8540641015	  20.3064000000	  43.1804000000
S	  11.7281000000	  10.5122000000	  44.4222000000
S	  12.8392000000	  12.2433000000	  43.8728000000
S	  11.8286000000	  14.0801000000	  44.2211000000
S	   8.8965100000	  17.1018000000	  41.2367000000
S	   7.0571200000	  17.6531000000	  42.2058000000
S	   6.2739700000	  19.4859000000	  41.1524000000
S	   9.6237200000	  15.2374000000	  41.7821000000
S	  11.6379000000	  15.2707000000	  42.5462000000
25

Li	   5.1560400000	  19.8038000000	  42.9811000000
O	   3.5608900000	  18.9061000000	  42.8530000000
C	   2.3222300000	  18.9128000000	  42.1287000000
C	   1.5266800000	  17.6521000000	  42.5761000000
C	   2.3072200000	  17.2284000000	  43.7837000000
C	   3.2174500000	  18.3698000000	  44.1506000000
C	   1.5045100000	  20.2517000000	  42.2142000000
H	   2.5103800000	  18.7132000000	  41.0898000000
H	   0.4691641015	  17.9243000000	  42.8211000000
H	   1.4359900000	  16.8505000000	  41.7951000000
H	   1.7703300000	  16.9061000000	  44.6530000000
H	   2.8530000000	  16.3433000000	  43.5901000000
H	   4.0952500000	  18.0846000000	  44.7374000000
H	   2.7463900000	  19.0970000000	  44.7434000000
H	   2.0514600000	  21.1546000000	  41.9852000000
H	   0.7957641015	  20.1328000000	  41.4016000000
H	   0.8540641015	  20.3064000000	  43.1804000000
S	  11.7281000000	  10.5122000000	  44.4222000000
S	  12.8392000000	  12.2433000000	  43.8728000000
S	  11.8286000000	  14.0801000000	  44.2211000000
S	   8.8965100000	  17.1018000000	  41.2367000000
S	   7.0571200000	  17.6531000000	  42.2058000000
S	   6.2739700000	  19.4859000000	  41.1524000000
S	   9.6237200000	  15.2374000000	  41.7821000000
S	  11.6379000000	  15.2707000000	  42.5462000000
