49

Li	  54.2798000000	  18.2796000000	  16.3582000000
O	  55.8699000000	  18.8336000000	  15.7146000000
O	  57.4520000000	  19.2867000000	  14.2003000000
C	  56.8131000000	  19.6789000000	  16.3825000000
C	  57.5287000000	  20.3419000000	  15.1801000000
C	  56.7523000000	  18.3025000000	  14.8066000000
H	  56.3270000000	  20.3269000000	  17.0002000000
H	  57.6068000000	  19.1505000000	  16.8469000000
H	  56.9950000000	  21.2326000000	  14.7767000000
H	  58.6236000000	  20.5570000000	  15.3219000000
H	  57.5119000000	  17.6108000000	  15.2590000000
H	  56.2649000000	  17.7800000000	  13.9959000000
O	  52.6177000000	  16.5024000000	  13.0583000000
O	  53.5610000000	  17.2228000000	  14.9507000000
C	  53.0717000000	  15.3668000000	  13.7326000000
C	  54.0118000000	  15.8685000000	  14.8252000000
C	  52.3821000000	  17.3556000000	  14.0991000000
H	  52.2400000000	  14.9369000000	  14.2822000000
H	  53.5078000000	  14.6668000000	  13.0219000000
H	  53.9728000000	  15.2095000000	  15.7301000000
H	  54.9681000000	  15.8760000000	  14.4348000000
H	  52.2843000000	  18.4351000000	  13.7565000000
H	  51.4387000000	  16.9481000000	  14.5740000000
O	  53.7632000000	  18.2150000000	  18.3134000000
O	  52.9299000000	  17.5590000000	  20.2026000000
C	  54.5032000000	  18.9296000000	  19.2491000000
C	  54.0203000000	  18.3996000000	  20.5732000000
C	  52.5569000000	  17.9143000000	  18.9524000000
H	  55.5912000000	  18.7164000000	  19.1288000000
H	  54.2148000000	  19.9701000000	  18.9927000000
H	  54.6367000000	  17.6952000000	  21.1009000000
H	  53.7936000000	  19.2009000000	  21.2262000000
H	  52.0299000000	  18.8766000000	  19.0055000000
H	  51.8790000000	  17.1575000000	  18.4900000000
N	  51.6950000000	  21.9282000000	  15.6219000000
S	  52.4442000000	  21.1322000000	  16.7495000000
O	  51.7117000000	  21.0683000000	  17.9803000000
O	  53.0329000000	  19.9001000000	  16.2968000000
C	  53.8604000000	  22.2722000000	  17.0150000000
F	  54.6838000000	  22.3063000000	  15.9348000000
F	  54.6346000000	  21.9486000000	  18.0825000000
F	  53.3012000000	  23.5144000000	  17.2394000000
S	  51.4614000000	  21.4819000000	  14.1109000000
O	  50.1792000000	  20.8396000000	  13.8325000000
O	  52.5996000000	  20.9603000000	  13.4041000000
C	  51.3412000000	  23.1219000000	  13.3078000000
F	  50.3754000000	  23.9112000000	  13.7802000000
F	  52.4780000000	  23.8317000000	  13.4534000000
F	  51.1649000000	  23.0334000000	  12.0305000000
49

Li	  54.2798000000	  18.2796000000	  16.3582000000
O	  55.8699000000	  18.8336000000	  15.7146000000
O	  57.4520000000	  19.2867000000	  14.2003000000
C	  56.8131000000	  19.6789000000	  16.3825000000
C	  57.5287000000	  20.3419000000	  15.1801000000
C	  56.7523000000	  18.3025000000	  14.8066000000
H	  56.3270000000	  20.3269000000	  17.0002000000
H	  57.6068000000	  19.1505000000	  16.8469000000
H	  56.9950000000	  21.2326000000	  14.7767000000
H	  58.6236000000	  20.5570000000	  15.3219000000
H	  57.5119000000	  17.6108000000	  15.2590000000
H	  56.2649000000	  17.7800000000	  13.9959000000
O	  52.6177000000	  16.5024000000	  13.0583000000
O	  53.5610000000	  17.2228000000	  14.9507000000
C	  53.0717000000	  15.3668000000	  13.7326000000
C	  54.0118000000	  15.8685000000	  14.8252000000
C	  52.3821000000	  17.3556000000	  14.0991000000
H	  52.2400000000	  14.9369000000	  14.2822000000
H	  53.5078000000	  14.6668000000	  13.0219000000
H	  53.9728000000	  15.2095000000	  15.7301000000
H	  54.9681000000	  15.8760000000	  14.4348000000
H	  52.2843000000	  18.4351000000	  13.7565000000
H	  51.4387000000	  16.9481000000	  14.5740000000
O	  53.7632000000	  18.2150000000	  18.3134000000
O	  52.9299000000	  17.5590000000	  20.2026000000
C	  54.5032000000	  18.9296000000	  19.2491000000
C	  54.0203000000	  18.3996000000	  20.5732000000
C	  52.5569000000	  17.9143000000	  18.9524000000
H	  55.5912000000	  18.7164000000	  19.1288000000
H	  54.2148000000	  19.9701000000	  18.9927000000
H	  54.6367000000	  17.6952000000	  21.1009000000
H	  53.7936000000	  19.2009000000	  21.2262000000
H	  52.0299000000	  18.8766000000	  19.0055000000
H	  51.8790000000	  17.1575000000	  18.4900000000
N	  51.6950000000	  21.9282000000	  15.6219000000
S	  52.4442000000	  21.1322000000	  16.7495000000
O	  51.7117000000	  21.0683000000	  17.9803000000
O	  53.0329000000	  19.9001000000	  16.2968000000
C	  53.8604000000	  22.2722000000	  17.0150000000
F	  54.6838000000	  22.3063000000	  15.9348000000
F	  54.6346000000	  21.9486000000	  18.0825000000
F	  53.3012000000	  23.5144000000	  17.2394000000
S	  51.4614000000	  21.4819000000	  14.1109000000
O	  50.1792000000	  20.8396000000	  13.8325000000
O	  52.5996000000	  20.9603000000	  13.4041000000
C	  51.3412000000	  23.1219000000	  13.3078000000
F	  50.3754000000	  23.9112000000	  13.7802000000
F	  52.4780000000	  23.8317000000	  13.4534000000
F	  51.1649000000	  23.0334000000	  12.0305000000
