59

Li	  22.2928000000	  21.9882000000	  42.8644000000
O	  21.7529000000	  26.0242000000	  43.1661000000
O	  22.0098000000	  23.7130000000	  43.3748000000
C	  22.1419000000	  25.6876000000	  44.4782000000
C	  21.6735000000	  24.3101000000	  44.5950000000
C	  22.1655000000	  24.8181000000	  42.5321000000
H	  23.2245000000	  25.8196000000	  44.6882000000
H	  21.6969000000	  26.2926000000	  45.1932000000
H	  22.0892000000	  23.8760000000	  45.5056000000
H	  20.5940000000	  24.2088000000	  44.8838000000
H	  21.6524000000	  24.7142000000	  41.5678000000
H	  23.2530000000	  24.8352000000	  42.2774000000
O	  22.2392000000	  22.0523000000	  41.0375000000
C	  23.1198000000	  21.7674000000	  39.8477000000
C	  22.0288000000	  21.5997000000	  38.6910000000
C	  20.8129000000	  21.0889000000	  39.4060000000
C	  20.8471000000	  21.8951000000	  40.7142000000
C	  24.1214000000	  22.9162000000	  39.5883000000
H	  23.7657000000	  20.8862000000	  39.9568000000
H	  21.6253000000	  22.4943000000	  38.2870000000
H	  22.3483000000	  20.9228000000	  37.8738000000
H	  19.8901000000	  21.1946000000	  38.8441000000
H	  21.0109000000	  20.0410000000	  39.6903000000
H	  20.2143000000	  21.4058000000	  41.4212000000
H	  20.4374000000	  22.8848000000	  40.6009000000
H	  24.3937000000	  22.8607000000	  38.6118000000
H	  23.9530000000	  23.9142000000	  40.0752000000
H	  25.0423000000	  22.5770000000	  40.1215000000
O	  23.8613000000	  21.2506000000	  43.4900000000
C	  25.1516000000	  21.7556000000	  43.9305000000
C	  26.1438000000	  20.9797000000	  43.0540000000
C	  25.4236000000	  19.7699000000	  42.6040000000
C	  23.9738000000	  19.8693000000	  43.1053000000
C	  25.1990000000	  23.2418000000	  43.5913000000
H	  25.4286000000	  21.5466000000	  44.9638000000
H	  26.3226000000	  21.5513000000	  42.1741000000
H	  27.0701000000	  20.8091000000	  43.4781000000
H	  25.3786000000	  19.7055000000	  41.5374000000
H	  25.7519000000	  18.7953000000	  42.9788000000
H	  23.9051000000	  19.4534000000	  44.1025000000
H	  23.2095000000	  19.4836000000	  42.4473000000
H	  24.7844000000	  23.8976000000	  44.3182000000
H	  26.2213000000	  23.5585000000	  43.5637000000
H	  24.8188000000	  23.4731000000	  42.6047000000
N	  22.1081000000	  19.5686000000	  46.0187000000
S	  21.0644000000	  20.6563000000	  45.6340000000
O	  20.9250000000	  21.7371000000	  46.5709000000
O	  21.1843000000	  20.9950000000	  44.2191000000
C	  19.5636000000	  19.6662000000	  45.9322000000
F	  19.4419000000	  19.3241000000	  47.1768000000
F	  19.4100000000	  18.5190000000	  45.3383000000
F	  18.4415000000	  20.3921000000	  45.6213000000
S	  22.9378000000	  19.5141000000	  47.3859000000
O	  22.1313000000	  19.4384000000	  48.5893000000
O	  24.1350000000	  20.3044000000	  47.2965000000
C	  23.6442000000	  17.7907000000	  47.3666000000
F	  24.3590000000	  17.4327000000	  46.2755000000
F	  24.5457000000	  17.6900000000	  48.3354000000
F	  22.7173000000	  16.8765000000	  47.6596000000
59

Li	  22.2928000000	  21.9882000000	  42.8644000000
O	  21.7529000000	  26.0242000000	  43.1661000000
O	  22.0098000000	  23.7130000000	  43.3748000000
C	  22.1419000000	  25.6876000000	  44.4782000000
C	  21.6735000000	  24.3101000000	  44.5950000000
C	  22.1655000000	  24.8181000000	  42.5321000000
H	  23.2245000000	  25.8196000000	  44.6882000000
H	  21.6969000000	  26.2926000000	  45.1932000000
H	  22.0892000000	  23.8760000000	  45.5056000000
H	  20.5940000000	  24.2088000000	  44.8838000000
H	  21.6524000000	  24.7142000000	  41.5678000000
H	  23.2530000000	  24.8352000000	  42.2774000000
O	  22.2392000000	  22.0523000000	  41.0375000000
C	  23.1198000000	  21.7674000000	  39.8477000000
C	  22.0288000000	  21.5997000000	  38.6910000000
C	  20.8129000000	  21.0889000000	  39.4060000000
C	  20.8471000000	  21.8951000000	  40.7142000000
C	  24.1214000000	  22.9162000000	  39.5883000000
H	  23.7657000000	  20.8862000000	  39.9568000000
H	  21.6253000000	  22.4943000000	  38.2870000000
H	  22.3483000000	  20.9228000000	  37.8738000000
H	  19.8901000000	  21.1946000000	  38.8441000000
H	  21.0109000000	  20.0410000000	  39.6903000000
H	  20.2143000000	  21.4058000000	  41.4212000000
H	  20.4374000000	  22.8848000000	  40.6009000000
H	  24.3937000000	  22.8607000000	  38.6118000000
H	  23.9530000000	  23.9142000000	  40.0752000000
H	  25.0423000000	  22.5770000000	  40.1215000000
O	  23.8613000000	  21.2506000000	  43.4900000000
C	  25.1516000000	  21.7556000000	  43.9305000000
C	  26.1438000000	  20.9797000000	  43.0540000000
C	  25.4236000000	  19.7699000000	  42.6040000000
C	  23.9738000000	  19.8693000000	  43.1053000000
C	  25.1990000000	  23.2418000000	  43.5913000000
H	  25.4286000000	  21.5466000000	  44.9638000000
H	  26.3226000000	  21.5513000000	  42.1741000000
H	  27.0701000000	  20.8091000000	  43.4781000000
H	  25.3786000000	  19.7055000000	  41.5374000000
H	  25.7519000000	  18.7953000000	  42.9788000000
H	  23.9051000000	  19.4534000000	  44.1025000000
H	  23.2095000000	  19.4836000000	  42.4473000000
H	  24.7844000000	  23.8976000000	  44.3182000000
H	  26.2213000000	  23.5585000000	  43.5637000000
H	  24.8188000000	  23.4731000000	  42.6047000000
N	  22.1081000000	  19.5686000000	  46.0187000000
S	  21.0644000000	  20.6563000000	  45.6340000000
O	  20.9250000000	  21.7371000000	  46.5709000000
O	  21.1843000000	  20.9950000000	  44.2191000000
C	  19.5636000000	  19.6662000000	  45.9322000000
F	  19.4419000000	  19.3241000000	  47.1768000000
F	  19.4100000000	  18.5190000000	  45.3383000000
F	  18.4415000000	  20.3921000000	  45.6213000000
S	  22.9378000000	  19.5141000000	  47.3859000000
O	  22.1313000000	  19.4384000000	  48.5893000000
O	  24.1350000000	  20.3044000000	  47.2965000000
C	  23.6442000000	  17.7907000000	  47.3666000000
F	  24.3590000000	  17.4327000000	  46.2755000000
F	  24.5457000000	  17.6900000000	  48.3354000000
F	  22.7173000000	  16.8765000000	  47.6596000000
