25

Li	  33.6190000000	  33.8369000000	  55.9774000000
O	  34.6854000000	  35.3814000000	  55.7591000000
C	  34.9131000000	  36.3781000000	  56.8420000000
C	  34.7793000000	  37.7927000000	  56.1056000000
C	  35.2149000000	  37.3852000000	  54.6749000000
C	  35.2298000000	  35.9091000000	  54.5727000000
C	  33.9143000000	  36.0916000000	  57.9673000000
H	  35.9127000000	  36.1883000000	  57.2453000000
H	  33.8322000000	  38.1973000000	  56.1392000000
H	  35.4842000000	  38.4746000000	  56.5183000000
H	  34.4501000000	  37.7562000000	  54.0033000000
H	  36.1622000000	  37.9021000000	  54.3895000000
H	  36.2296000000	  35.6390000000	  54.5643000000
H	  34.7266000000	  35.4861000000	  53.7261000000
H	  34.0472000000	  35.1020000000	  58.4928000000
H	  34.2603000000	  36.7505000000	  58.7200000000
H	  32.8769000000	  36.2795000000	  57.6597000000
S	  35.0168000000	  32.4466000000	  55.5141000000
S	  33.5889000000	  31.1787000000	  54.6146000000
S	  33.1202000000	  31.7644000000	  52.6406000000
S	  29.7648000000	  34.4483000000	  54.1115000000
S	  31.2365000000	  35.0913000000	  55.3254000000
S	  31.7712000000	  33.8508000000	  56.9289000000
S	  30.4862000000	  33.6702000000	  52.2654000000
S	  31.0043000000	  31.6716000000	  52.4284000000
25

Li	  33.6190000000	  33.8369000000	  55.9774000000
O	  34.6854000000	  35.3814000000	  55.7591000000
C	  34.9131000000	  36.3781000000	  56.8420000000
C	  34.7793000000	  37.7927000000	  56.1056000000
C	  35.2149000000	  37.3852000000	  54.6749000000
C	  35.2298000000	  35.9091000000	  54.5727000000
C	  33.9143000000	  36.0916000000	  57.9673000000
H	  35.9127000000	  36.1883000000	  57.2453000000
H	  33.8322000000	  38.1973000000	  56.1392000000
H	  35.4842000000	  38.4746000000	  56.5183000000
H	  34.4501000000	  37.7562000000	  54.0033000000
H	  36.1622000000	  37.9021000000	  54.3895000000
H	  36.2296000000	  35.6390000000	  54.5643000000
H	  34.7266000000	  35.4861000000	  53.7261000000
H	  34.0472000000	  35.1020000000	  58.4928000000
H	  34.2603000000	  36.7505000000	  58.7200000000
H	  32.8769000000	  36.2795000000	  57.6597000000
S	  35.0168000000	  32.4466000000	  55.5141000000
S	  33.5889000000	  31.1787000000	  54.6146000000
S	  33.1202000000	  31.7644000000	  52.6406000000
S	  29.7648000000	  34.4483000000	  54.1115000000
S	  31.2365000000	  35.0913000000	  55.3254000000
S	  31.7712000000	  33.8508000000	  56.9289000000
S	  30.4862000000	  33.6702000000	  52.2654000000
S	  31.0043000000	  31.6716000000	  52.4284000000
