65

Li	   9.0723200000	  48.4610000000	  49.3611000000
O	  10.0285000000	  47.7794000000	  51.1588000000
O	  11.6600000000	  47.6412000000	  52.6292000000
C	  10.0685000000	  46.4459000000	  51.5362000000
C	  11.4218000000	  46.3429000000	  52.1897000000
C	  10.5538000000	  48.4190000000	  52.2566000000
H	   9.2770800000	  46.2701000000	  52.2964000000
H	  10.0727000000	  45.8120000000	  50.7216000000
H	  11.4992000000	  45.6513000000	  53.0046000000
H	  12.0798000000	  46.0808000000	  51.3638000000
H	  10.6873000000	  49.4761000000	  52.2156000000
H	   9.8264000000	  48.4206000000	  53.1082000000
O	  12.6699000000	  48.4445000000	  47.7001000000
O	  10.8786000000	  48.9407000000	  48.9125000000
C	  12.0259000000	  49.4823000000	  47.0312000000
C	  10.9968000000	  50.0468000000	  48.0089000000
C	  12.2082000000	  48.4949000000	  49.0068000000
H	  12.8480000000	  50.2180000000	  46.6054000000
H	  11.5270000000	  49.0080000000	  46.1399000000
H	  11.2890000000	  50.9674000000	  48.5376000000
H	  10.1361000000	  50.0832000000	  47.3378000000
H	  12.2336000000	  47.5254000000	  49.4320000000
H	  12.7431000000	  49.1606000000	  49.6238000000
O	   8.6639400000	  46.7614000000	  48.6621000000
O	   8.4022200000	  44.6143000000	  49.4003000000
C	   9.6447400000	  45.9977000000	  47.9808000000
C	   9.3465300000	  44.4689000000	  48.3231000000
C	   7.7682100000	  45.8330000000	  49.1575000000
H	   9.5771400000	  46.1303000000	  46.9114000000
H	  10.6273000000	  46.3198000000	  48.2837000000
H	   8.8088200000	  44.0504000000	  47.4762000000
H	  10.2849000000	  43.8380000000	  48.5322000000
H	   7.2524300000	  46.2601000000	  50.0922000000
H	   6.9401100000	  45.7614000000	  48.4534000000
O	   7.6959700000	  49.3741000000	  50.8305000000
C	   7.5757700000	  50.7452000000	  51.0570000000
C	   7.3806200000	  50.8997000000	  52.5386000000
C	   6.4265700000	  49.7197000000	  52.7587000000
C	   6.7800900000	  48.6357000000	  51.7115000000
C	   8.6808000000	  51.4061000000	  50.2495000000
H	   6.7061300000	  51.1725000000	  50.5680000000
H	   8.3337300000	  50.7871000000	  53.1358000000
H	   6.9407200000	  51.8628000000	  52.8159000000
H	   6.4578600000	  49.3324000000	  53.8233000000
H	   5.3875300000	  50.0986000000	  52.6736000000
H	   5.8810200000	  48.5610000000	  51.0945000000
H	   7.0881100000	  47.6811000000	  52.1723000000
H	   9.6765900000	  50.9863000000	  50.4939000000
H	   8.4726700000	  51.3460000000	  49.1771000000
H	   8.6525500000	  52.4610000000	  50.5475000000
N	   5.3002900000	  49.7318000000	  47.8563000000
S	   6.4031800000	  48.9226000000	  47.1684000000
O	   7.6748000000	  49.1077000000	  47.8607000000
O	   5.9978200000	  47.6107000000	  46.6166000000
C	   6.5780400000	  49.9812000000	  45.6752000000
F	   7.1827000000	  51.1827000000	  45.9239000000
F	   5.4336700000	  50.1578000000	  44.9574000000
F	   7.3708700000	  49.4373000000	  44.7810000000
S	   3.8329700000	  49.4036000000	  48.3525000000
O	   3.4572400000	  50.3259000000	  49.3926000000
O	   3.5584900000	  48.0050000000	  48.4791000000
C	   2.8075100000	  49.9540000000	  46.9652000000
F	   2.9061600000	  49.1261000000	  45.9076000000
F	   1.5631700000	  49.7941000000	  47.2982000000
F	   2.9734800000	  51.2901000000	  46.6204000000
65

Li	   9.0723200000	  48.4610000000	  49.3611000000
O	  10.0285000000	  47.7794000000	  51.1588000000
O	  11.6600000000	  47.6412000000	  52.6292000000
C	  10.0685000000	  46.4459000000	  51.5362000000
C	  11.4218000000	  46.3429000000	  52.1897000000
C	  10.5538000000	  48.4190000000	  52.2566000000
H	   9.2770800000	  46.2701000000	  52.2964000000
H	  10.0727000000	  45.8120000000	  50.7216000000
H	  11.4992000000	  45.6513000000	  53.0046000000
H	  12.0798000000	  46.0808000000	  51.3638000000
H	  10.6873000000	  49.4761000000	  52.2156000000
H	   9.8264000000	  48.4206000000	  53.1082000000
O	  12.6699000000	  48.4445000000	  47.7001000000
O	  10.8786000000	  48.9407000000	  48.9125000000
C	  12.0259000000	  49.4823000000	  47.0312000000
C	  10.9968000000	  50.0468000000	  48.0089000000
C	  12.2082000000	  48.4949000000	  49.0068000000
H	  12.8480000000	  50.2180000000	  46.6054000000
H	  11.5270000000	  49.0080000000	  46.1399000000
H	  11.2890000000	  50.9674000000	  48.5376000000
H	  10.1361000000	  50.0832000000	  47.3378000000
H	  12.2336000000	  47.5254000000	  49.4320000000
H	  12.7431000000	  49.1606000000	  49.6238000000
O	   8.6639400000	  46.7614000000	  48.6621000000
O	   8.4022200000	  44.6143000000	  49.4003000000
C	   9.6447400000	  45.9977000000	  47.9808000000
C	   9.3465300000	  44.4689000000	  48.3231000000
C	   7.7682100000	  45.8330000000	  49.1575000000
H	   9.5771400000	  46.1303000000	  46.9114000000
H	  10.6273000000	  46.3198000000	  48.2837000000
H	   8.8088200000	  44.0504000000	  47.4762000000
H	  10.2849000000	  43.8380000000	  48.5322000000
H	   7.2524300000	  46.2601000000	  50.0922000000
H	   6.9401100000	  45.7614000000	  48.4534000000
O	   7.6959700000	  49.3741000000	  50.8305000000
C	   7.5757700000	  50.7452000000	  51.0570000000
C	   7.3806200000	  50.8997000000	  52.5386000000
C	   6.4265700000	  49.7197000000	  52.7587000000
C	   6.7800900000	  48.6357000000	  51.7115000000
C	   8.6808000000	  51.4061000000	  50.2495000000
H	   6.7061300000	  51.1725000000	  50.5680000000
H	   8.3337300000	  50.7871000000	  53.1358000000
H	   6.9407200000	  51.8628000000	  52.8159000000
H	   6.4578600000	  49.3324000000	  53.8233000000
H	   5.3875300000	  50.0986000000	  52.6736000000
H	   5.8810200000	  48.5610000000	  51.0945000000
H	   7.0881100000	  47.6811000000	  52.1723000000
H	   9.6765900000	  50.9863000000	  50.4939000000
H	   8.4726700000	  51.3460000000	  49.1771000000
H	   8.6525500000	  52.4610000000	  50.5475000000
N	   5.3002900000	  49.7318000000	  47.8563000000
S	   6.4031800000	  48.9226000000	  47.1684000000
O	   7.6748000000	  49.1077000000	  47.8607000000
O	   5.9978200000	  47.6107000000	  46.6166000000
C	   6.5780400000	  49.9812000000	  45.6752000000
F	   7.1827000000	  51.1827000000	  45.9239000000
F	   5.4336700000	  50.1578000000	  44.9574000000
F	   7.3708700000	  49.4373000000	  44.7810000000
S	   3.8329700000	  49.4036000000	  48.3525000000
O	   3.4572400000	  50.3259000000	  49.3926000000
O	   3.5584900000	  48.0050000000	  48.4791000000
C	   2.8075100000	  49.9540000000	  46.9652000000
F	   2.9061600000	  49.1261000000	  45.9076000000
F	   1.5631700000	  49.7941000000	  47.2982000000
F	   2.9734800000	  51.2901000000	  46.6204000000
