39

Li	  44.2280000000	  51.7657000000	   2.0408500000
O	  43.4573000000	  53.3465000000	   2.5264600000
O	  43.2430000000	  55.3133000000	   3.7349800000
C	  42.1553000000	  53.4201000000	   2.8111000000
C	  41.9502000000	  54.7898000000	   3.5096300000
C	  43.9188000000	  54.6563000000	   2.7121400000
H	  41.5473000000	  53.4386000000	   1.9162100000
H	  41.9617000000	  52.6025000000	   3.4292900000
H	  41.4176000000	  55.4513000000	   2.9453800000
H	  41.5112000000	  54.6173000000	   4.5061400000
H	  45.0185000000	  54.5545000000	   3.0212700000
H	  43.7319000000	  55.1853000000	   1.7117700000
O	  43.8845000000	  49.9108000000	   5.6019000000
O	  43.7744000000	  50.3490000000	   3.4869800000
C	  44.2217000000	  48.7203000000	   5.0196800000
C	  44.3505000000	  49.0431000000	   3.5721500000
C	  43.2475000000	  50.6919000000	   4.7077900000
H	  45.1876000000	  48.4408000000	   5.5213500000
H	  43.4961000000	  47.9542000000	   5.1952300000
H	  45.3834000000	  49.0716000000	   3.3456300000
H	  43.9161000000	  48.2552000000	   2.9830100000
H	  42.2298000000	  50.4577000000	   4.6757000000
H	  43.4241000000	  51.7226000000	   4.9881000000
O	  43.5725000000	  51.5804000000	   0.2619385741
C	  43.0280000000	  52.3225000000	  -0.8047614259
C	  44.1419000000	  52.0375000000	  -1.8652614259
C	  44.6200000000	  50.6278000000	  -1.5564614259
C	  43.9530000000	  50.2724000000	  -0.2151614259
C	  41.6191000000	  51.8091000000	  -1.1026614259
H	  42.9883000000	  53.4004000000	  -0.6528614259
H	  43.5543000000	  51.9463000000	  -2.7957614259
H	  45.0379000000	  52.7654000000	  -1.7443614259
H	  44.2540000000	  49.8537000000	  -2.3085614259
H	  45.7539000000	  50.7189000000	  -1.6160614259
H	  44.6141000000	  49.8803000000	   0.4933385741
H	  43.1044000000	  49.6638000000	  -0.2836614259
H	  41.2499000000	  52.3905000000	  -1.8572614259
H	  41.6923000000	  50.7979000000	  -1.5434614259
H	  40.9726000000	  51.8514000000	  -0.1994614259
39

Li	  44.2280000000	  51.7657000000	   2.0408500000
O	  43.4573000000	  53.3465000000	   2.5264600000
O	  43.2430000000	  55.3133000000	   3.7349800000
C	  42.1553000000	  53.4201000000	   2.8111000000
C	  41.9502000000	  54.7898000000	   3.5096300000
C	  43.9188000000	  54.6563000000	   2.7121400000
H	  41.5473000000	  53.4386000000	   1.9162100000
H	  41.9617000000	  52.6025000000	   3.4292900000
H	  41.4176000000	  55.4513000000	   2.9453800000
H	  41.5112000000	  54.6173000000	   4.5061400000
H	  45.0185000000	  54.5545000000	   3.0212700000
H	  43.7319000000	  55.1853000000	   1.7117700000
O	  43.8845000000	  49.9108000000	   5.6019000000
O	  43.7744000000	  50.3490000000	   3.4869800000
C	  44.2217000000	  48.7203000000	   5.0196800000
C	  44.3505000000	  49.0431000000	   3.5721500000
C	  43.2475000000	  50.6919000000	   4.7077900000
H	  45.1876000000	  48.4408000000	   5.5213500000
H	  43.4961000000	  47.9542000000	   5.1952300000
H	  45.3834000000	  49.0716000000	   3.3456300000
H	  43.9161000000	  48.2552000000	   2.9830100000
H	  42.2298000000	  50.4577000000	   4.6757000000
H	  43.4241000000	  51.7226000000	   4.9881000000
O	  43.5725000000	  51.5804000000	   0.2619385741
C	  43.0280000000	  52.3225000000	  -0.8047614259
C	  44.1419000000	  52.0375000000	  -1.8652614259
C	  44.6200000000	  50.6278000000	  -1.5564614259
C	  43.9530000000	  50.2724000000	  -0.2151614259
C	  41.6191000000	  51.8091000000	  -1.1026614259
H	  42.9883000000	  53.4004000000	  -0.6528614259
H	  43.5543000000	  51.9463000000	  -2.7957614259
H	  45.0379000000	  52.7654000000	  -1.7443614259
H	  44.2540000000	  49.8537000000	  -2.3085614259
H	  45.7539000000	  50.7189000000	  -1.6160614259
H	  44.6141000000	  49.8803000000	   0.4933385741
H	  43.1044000000	  49.6638000000	  -0.2836614259
H	  41.2499000000	  52.3905000000	  -1.8572614259
H	  41.6923000000	  50.7979000000	  -1.5434614259
H	  40.9726000000	  51.8514000000	  -0.1994614259
