38

Li	  15.7470000000	  12.0155000000	  43.3473000000
O	  17.0604000000	  12.8834000000	  44.6334000000
O	  18.1208000000	  13.4593000000	  46.5138000000
C	  17.9374000000	  13.9794000000	  44.3057000000
C	  18.9205000000	  14.0656000000	  45.5295000000
C	  17.0293000000	  12.8948000000	  46.0470000000
H	  18.4117000000	  13.7668000000	  43.3719000000
H	  17.3634000000	  14.8595000000	  44.2157000000
H	  19.8544000000	  13.6477000000	  45.4036000000
H	  19.0963000000	  15.1178000000	  45.8095000000
H	  16.1158000000	  13.4382000000	  46.4337000000
H	  17.0604000000	  11.9147000000	  46.3754000000
O	  15.5625000000	   9.4748000000	  40.1312000000
O	  15.9401000000	  10.7957000000	  41.9281000000
C	  15.9414000000	   8.6182600000	  41.0828000000
C	  15.8628000000	   9.4541800000	  42.3589000000
C	  15.9534000000	  10.7225000000	  40.5325000000
H	  15.2227000000	   7.8475500000	  41.0628000000
H	  16.8633000000	   8.1190300000	  40.9049000000
H	  14.9709000000	   9.3293600000	  42.9369000000
H	  16.6177000000	   9.0660900000	  42.9461000000
H	  16.9853000000	  10.7879000000	  40.2025000000
H	  15.3820000000	  11.4671000000	  39.9675000000
N	  12.0878000000	  11.4383000000	  45.6266000000
S	  11.2726000000	  12.7651000000	  45.5650000000
O	  12.0460000000	  13.9808000000	  45.3540000000
O	  10.0534000000	  12.5614000000	  44.8467000000
C	  10.8189000000	  12.9489000000	  47.2790000000
F	  10.0368000000	  12.0200000000	  47.6293000000
F	  10.1355000000	  14.0642000000	  47.4528000000
F	  11.8696000000	  12.8979000000	  48.1028000000
S	  13.6041000000	  11.3589000000	  45.8941000000
O	  14.1021000000	  12.5083000000	  46.5982000000
O	  14.3236000000	  10.9449000000	  44.7170000000
C	  13.7744000000	   9.9158800000	  46.9301000000
F	  15.0307000000	   9.7075100000	  47.3233000000
F	  13.0469000000	  10.1031000000	  48.0356000000
F	  13.3181000000	   8.8414200000	  46.3629000000
38

Li	  15.7470000000	  12.0155000000	  43.3473000000
O	  17.0604000000	  12.8834000000	  44.6334000000
O	  18.1208000000	  13.4593000000	  46.5138000000
C	  17.9374000000	  13.9794000000	  44.3057000000
C	  18.9205000000	  14.0656000000	  45.5295000000
C	  17.0293000000	  12.8948000000	  46.0470000000
H	  18.4117000000	  13.7668000000	  43.3719000000
H	  17.3634000000	  14.8595000000	  44.2157000000
H	  19.8544000000	  13.6477000000	  45.4036000000
H	  19.0963000000	  15.1178000000	  45.8095000000
H	  16.1158000000	  13.4382000000	  46.4337000000
H	  17.0604000000	  11.9147000000	  46.3754000000
O	  15.5625000000	   9.4748000000	  40.1312000000
O	  15.9401000000	  10.7957000000	  41.9281000000
C	  15.9414000000	   8.6182600000	  41.0828000000
C	  15.8628000000	   9.4541800000	  42.3589000000
C	  15.9534000000	  10.7225000000	  40.5325000000
H	  15.2227000000	   7.8475500000	  41.0628000000
H	  16.8633000000	   8.1190300000	  40.9049000000
H	  14.9709000000	   9.3293600000	  42.9369000000
H	  16.6177000000	   9.0660900000	  42.9461000000
H	  16.9853000000	  10.7879000000	  40.2025000000
H	  15.3820000000	  11.4671000000	  39.9675000000
N	  12.0878000000	  11.4383000000	  45.6266000000
S	  11.2726000000	  12.7651000000	  45.5650000000
O	  12.0460000000	  13.9808000000	  45.3540000000
O	  10.0534000000	  12.5614000000	  44.8467000000
C	  10.8189000000	  12.9489000000	  47.2790000000
F	  10.0368000000	  12.0200000000	  47.6293000000
F	  10.1355000000	  14.0642000000	  47.4528000000
F	  11.8696000000	  12.8979000000	  48.1028000000
S	  13.6041000000	  11.3589000000	  45.8941000000
O	  14.1021000000	  12.5083000000	  46.5982000000
O	  14.3236000000	  10.9449000000	  44.7170000000
C	  13.7744000000	   9.9158800000	  46.9301000000
F	  15.0307000000	   9.7075100000	  47.3233000000
F	  13.0469000000	  10.1031000000	  48.0356000000
F	  13.3181000000	   8.8414200000	  46.3629000000
