54

Li	  17.1478000000	  52.4754000000	  54.5530000000
O	  16.9533000000	  54.1730000000	  55.4186000000
O	  17.0529000000	  56.4165000000	  55.7461000000
C	  16.1286000000	  54.5216000000	  56.4841000000
C	  16.6427000000	  55.8408000000	  56.9875000000
C	  17.5256000000	  55.3599000000	  54.9688000000
H	  15.1965000000	  54.4890000000	  55.9086000000
H	  16.1019000000	  53.6815000000	  57.2332000000
H	  15.9284000000	  56.4958000000	  57.5650000000
H	  17.4931000000	  55.7141000000	  57.6095000000
H	  18.6155000000	  55.4602000000	  54.7603000000
H	  17.1936000000	  55.5630000000	  53.9618000000
O	  20.8392000000	  52.9483000000	  53.8872000000
O	  18.9092000000	  51.9903000000	  54.4428000000
C	  20.8092000000	  52.9186000000	  55.3202000000
C	  19.5849000000	  52.0855000000	  55.6792000000
C	  19.9030000000	  52.0037000000	  53.4808000000
H	  21.7104000000	  52.3581000000	  55.5348000000
H	  20.7483000000	  53.9200000000	  55.7679000000
H	  19.9348000000	  51.1724000000	  56.1888000000
H	  18.9959000000	  52.5658000000	  56.4430000000
H	  19.5755000000	  52.3877000000	  52.5224000000
H	  20.4548000000	  51.0716000000	  53.4129000000
O	  16.1717000000	  51.0101000000	  54.9022000000
C	  14.8313000000	  50.6117000000	  55.2598000000
C	  14.9136000000	  49.1047000000	  55.4283000000
C	  15.9941000000	  48.6441000000	  54.5096000000
C	  16.6880000000	  49.9344000000	  54.0959000000
C	  14.3803000000	  51.4165000000	  56.4659000000
H	  14.1465000000	  50.8639000000	  54.5041000000
H	  15.1178000000	  48.8339000000	  56.4519000000
H	  13.9975000000	  48.5412000000	  55.1926000000
H	  16.5550000000	  47.8658000000	  55.0128000000
H	  15.5939000000	  48.1514000000	  53.5138000000
H	  16.5033000000	  50.1408000000	  53.0876000000
H	  17.7323000000	  49.9234000000	  54.2478000000
H	  13.8514000000	  52.3162000000	  56.1834000000
H	  13.6793000000	  50.7836000000	  57.0038000000
H	  15.1206000000	  51.5698000000	  57.2512000000
N	  15.2748000000	  51.5129000000	  51.3085000000
S	  15.9583000000	  52.8950000000	  51.5749000000
O	  16.8974000000	  52.7095000000	  52.6623000000
O	  16.3693000000	  53.6266000000	  50.3621000000
C	  14.5701000000	  53.9437000000	  52.2956000000
F	  14.2229000000	  53.5104000000	  53.4771000000
F	  13.4805000000	  53.9183000000	  51.5144000000
F	  14.9473000000	  55.2330000000	  52.4882000000
S	  15.1089000000	  50.8256000000	  49.9211000000
O	  15.9766000000	  49.6475000000	  49.6928000000
O	  15.0537000000	  51.7736000000	  48.8809000000
C	  13.4159000000	  50.1817000000	  50.2128000000
F	  13.3795000000	  49.2996000000	  51.2428000000
F	  12.6037000000	  51.0965000000	  50.5540000000
F	  13.0341000000	  49.6222000000	  49.0732000000
54

Li	  17.1478000000	  52.4754000000	  54.5530000000
O	  16.9533000000	  54.1730000000	  55.4186000000
O	  17.0529000000	  56.4165000000	  55.7461000000
C	  16.1286000000	  54.5216000000	  56.4841000000
C	  16.6427000000	  55.8408000000	  56.9875000000
C	  17.5256000000	  55.3599000000	  54.9688000000
H	  15.1965000000	  54.4890000000	  55.9086000000
H	  16.1019000000	  53.6815000000	  57.2332000000
H	  15.9284000000	  56.4958000000	  57.5650000000
H	  17.4931000000	  55.7141000000	  57.6095000000
H	  18.6155000000	  55.4602000000	  54.7603000000
H	  17.1936000000	  55.5630000000	  53.9618000000
O	  20.8392000000	  52.9483000000	  53.8872000000
O	  18.9092000000	  51.9903000000	  54.4428000000
C	  20.8092000000	  52.9186000000	  55.3202000000
C	  19.5849000000	  52.0855000000	  55.6792000000
C	  19.9030000000	  52.0037000000	  53.4808000000
H	  21.7104000000	  52.3581000000	  55.5348000000
H	  20.7483000000	  53.9200000000	  55.7679000000
H	  19.9348000000	  51.1724000000	  56.1888000000
H	  18.9959000000	  52.5658000000	  56.4430000000
H	  19.5755000000	  52.3877000000	  52.5224000000
H	  20.4548000000	  51.0716000000	  53.4129000000
O	  16.1717000000	  51.0101000000	  54.9022000000
C	  14.8313000000	  50.6117000000	  55.2598000000
C	  14.9136000000	  49.1047000000	  55.4283000000
C	  15.9941000000	  48.6441000000	  54.5096000000
C	  16.6880000000	  49.9344000000	  54.0959000000
C	  14.3803000000	  51.4165000000	  56.4659000000
H	  14.1465000000	  50.8639000000	  54.5041000000
H	  15.1178000000	  48.8339000000	  56.4519000000
H	  13.9975000000	  48.5412000000	  55.1926000000
H	  16.5550000000	  47.8658000000	  55.0128000000
H	  15.5939000000	  48.1514000000	  53.5138000000
H	  16.5033000000	  50.1408000000	  53.0876000000
H	  17.7323000000	  49.9234000000	  54.2478000000
H	  13.8514000000	  52.3162000000	  56.1834000000
H	  13.6793000000	  50.7836000000	  57.0038000000
H	  15.1206000000	  51.5698000000	  57.2512000000
N	  15.2748000000	  51.5129000000	  51.3085000000
S	  15.9583000000	  52.8950000000	  51.5749000000
O	  16.8974000000	  52.7095000000	  52.6623000000
O	  16.3693000000	  53.6266000000	  50.3621000000
C	  14.5701000000	  53.9437000000	  52.2956000000
F	  14.2229000000	  53.5104000000	  53.4771000000
F	  13.4805000000	  53.9183000000	  51.5144000000
F	  14.9473000000	  55.2330000000	  52.4882000000
S	  15.1089000000	  50.8256000000	  49.9211000000
O	  15.9766000000	  49.6475000000	  49.6928000000
O	  15.0537000000	  51.7736000000	  48.8809000000
C	  13.4159000000	  50.1817000000	  50.2128000000
F	  13.3795000000	  49.2996000000	  51.2428000000
F	  12.6037000000	  51.0965000000	  50.5540000000
F	  13.0341000000	  49.6222000000	  49.0732000000
