28

Li	  39.6794000000	  47.4518000000	  51.5180000000
O	  39.4968000000	  46.1683000000	  50.2605000000
O	  39.4788000000	  45.1319000000	  48.2812000000
C	  38.1786000000	  46.1088000000	  49.6760000000
C	  38.1678000000	  44.9987000000	  48.6881000000
C	  40.2009000000	  45.3059000000	  49.4583000000
H	  37.2863000000	  45.9743000000	  50.3011000000
H	  37.9660000000	  47.0531000000	  49.0931000000
H	  37.9060000000	  43.9887000000	  49.0311000000
H	  37.3313000000	  45.1982000000	  47.9640000000
H	  41.1511000000	  45.7241000000	  49.2479000000
H	  40.5305000000	  44.3821000000	  49.9817000000
O	  40.8479000000	  47.2867000000	  52.8770000000
C	  42.2247000000	  47.6651000000	  52.9350000000
C	  42.5833000000	  47.7020000000	  54.4508000000
C	  41.2528000000	  47.8182000000	  55.1685000000
C	  40.2388000000	  47.8528000000	  54.0361000000
C	  43.0724000000	  46.7796000000	  52.0250000000
H	  42.2594000000	  48.6645000000	  52.5455000000
H	  43.0797000000	  46.7522000000	  54.6179000000
H	  43.2845000000	  48.5074000000	  54.5309000000
H	  40.9908000000	  47.1549000000	  56.0177000000
H	  41.3736000000	  48.7875000000	  55.6529000000
H	  40.0196000000	  48.8986000000	  53.7695000000
H	  39.3217000000	  47.3307000000	  54.3272000000
H	  42.7986000000	  46.9276000000	  50.9146000000
H	  44.1746000000	  46.9836000000	  52.1022000000
H	  42.9526000000	  45.7075000000	  52.3014000000
28

Li	  39.6794000000	  47.4518000000	  51.5180000000
O	  39.4968000000	  46.1683000000	  50.2605000000
O	  39.4788000000	  45.1319000000	  48.2812000000
C	  38.1786000000	  46.1088000000	  49.6760000000
C	  38.1678000000	  44.9987000000	  48.6881000000
C	  40.2009000000	  45.3059000000	  49.4583000000
H	  37.2863000000	  45.9743000000	  50.3011000000
H	  37.9660000000	  47.0531000000	  49.0931000000
H	  37.9060000000	  43.9887000000	  49.0311000000
H	  37.3313000000	  45.1982000000	  47.9640000000
H	  41.1511000000	  45.7241000000	  49.2479000000
H	  40.5305000000	  44.3821000000	  49.9817000000
O	  40.8479000000	  47.2867000000	  52.8770000000
C	  42.2247000000	  47.6651000000	  52.9350000000
C	  42.5833000000	  47.7020000000	  54.4508000000
C	  41.2528000000	  47.8182000000	  55.1685000000
C	  40.2388000000	  47.8528000000	  54.0361000000
C	  43.0724000000	  46.7796000000	  52.0250000000
H	  42.2594000000	  48.6645000000	  52.5455000000
H	  43.0797000000	  46.7522000000	  54.6179000000
H	  43.2845000000	  48.5074000000	  54.5309000000
H	  40.9908000000	  47.1549000000	  56.0177000000
H	  41.3736000000	  48.7875000000	  55.6529000000
H	  40.0196000000	  48.8986000000	  53.7695000000
H	  39.3217000000	  47.3307000000	  54.3272000000
H	  42.7986000000	  46.9276000000	  50.9146000000
H	  44.1746000000	  46.9836000000	  52.1022000000
H	  42.9526000000	  45.7075000000	  52.3014000000
