64

Li	  38.6218000000	  53.9530000000	  48.4660000000
O	  37.3073000000	  53.5075000000	  49.6959000000
C	  36.0007000000	  53.8762000000	  49.9275000000
C	  35.9510000000	  54.4409000000	  51.3613000000
C	  37.1827000000	  53.8372000000	  52.0936000000
C	  37.7692000000	  52.9776000000	  50.9547000000
C	  35.5636000000	  55.0643000000	  48.9223000000
H	  35.2805000000	  53.0429000000	  49.9120000000
H	  35.9155000000	  55.5705000000	  51.5291000000
H	  35.1041000000	  54.1112000000	  51.8745000000
H	  37.8053000000	  54.5538000000	  52.5625000000
H	  36.7259000000	  53.3267000000	  52.9179000000
H	  37.6112000000	  51.9980000000	  51.2969000000
H	  38.8403000000	  53.1352000000	  50.9919000000
H	  34.6442000000	  55.4970000000	  49.3232000000
H	  36.3427000000	  55.7801000000	  48.7815000000
H	  35.3496000000	  54.5957000000	  47.9571000000
O	  40.0625000000	  54.4766000000	  49.2618000000
C	  40.6625000000	  55.3069000000	  50.2365000000
C	  41.8680000000	  55.9351000000	  49.5492000000
C	  42.1959000000	  54.9223000000	  48.4982000000
C	  41.1431000000	  53.8299000000	  48.6581000000
C	  39.5221000000	  56.3009000000	  50.4483000000
H	  40.9354000000	  54.8384000000	  51.1327000000
H	  41.5683000000	  56.8842000000	  49.0874000000
H	  42.7140000000	  56.0555000000	  50.2297000000
H	  41.9227000000	  55.4708000000	  47.6014000000
H	  43.1903000000	  54.5424000000	  48.4791000000
H	  41.4866000000	  52.8799000000	  49.2124000000
H	  40.8798000000	  53.4718000000	  47.6629000000
H	  38.6546000000	  55.8488000000	  50.8469000000
H	  39.7107000000	  57.0526000000	  51.2894000000
H	  39.4399000000	  56.9449000000	  49.4941000000
O	  38.7130000000	  52.5070000000	  47.0863000000
C	  38.8935000000	  51.3260000000	  47.9277000000
C	  37.5895000000	  50.4237000000	  47.6685000000
C	  36.7887000000	  51.3289000000	  46.6997000000
C	  37.8312000000	  52.2062000000	  46.0131000000
C	  40.1687000000	  50.5504000000	  47.5656000000
H	  38.8111000000	  51.4971000000	  48.9655000000
H	  37.9137000000	  49.4110000000	  47.3159000000
H	  37.0823000000	  50.3555000000	  48.6461000000
H	  36.1073000000	  50.7892000000	  46.0246000000
H	  36.2163000000	  52.0072000000	  47.2969000000
H	  37.3439000000	  53.0444000000	  45.5843000000
H	  38.3463000000	  51.6280000000	  45.2638000000
H	  40.3055000000	  49.6714000000	  48.1923000000
H	  40.1431000000	  50.1253000000	  46.6001000000
H	  40.9843000000	  51.1877000000	  47.6307000000
N	  39.7940000000	  55.3833000000	  44.8717000000
S	  39.9511000000	  54.5200000000	  43.5828000000
O	  38.8840000000	  53.5354000000	  43.4360000000
O	  40.3430000000	  55.1950000000	  42.4240000000
C	  41.4397000000	  53.5584000000	  43.9691000000
F	  41.2723000000	  53.0806000000	  45.1623000000
F	  42.5206000000	  54.3310000000	  43.9102000000
F	  41.6640000000	  52.5362000000	  43.2229000000
S	  38.4117000000	  55.8027000000	  45.5609000000
O	  38.1008000000	  55.0571000000	  46.7809000000
O	  37.3728000000	  56.0440000000	  44.5664000000
C	  38.8227000000	  57.5224000000	  46.1224000000
F	  39.8809000000	  57.5659000000	  46.9729000000
F	  39.1149000000	  58.3800000000	  45.1518000000
F	  37.8287000000	  57.9842000000	  46.8069000000
64

Li	  38.6218000000	  53.9530000000	  48.4660000000
O	  37.3073000000	  53.5075000000	  49.6959000000
C	  36.0007000000	  53.8762000000	  49.9275000000
C	  35.9510000000	  54.4409000000	  51.3613000000
C	  37.1827000000	  53.8372000000	  52.0936000000
C	  37.7692000000	  52.9776000000	  50.9547000000
C	  35.5636000000	  55.0643000000	  48.9223000000
H	  35.2805000000	  53.0429000000	  49.9120000000
H	  35.9155000000	  55.5705000000	  51.5291000000
H	  35.1041000000	  54.1112000000	  51.8745000000
H	  37.8053000000	  54.5538000000	  52.5625000000
H	  36.7259000000	  53.3267000000	  52.9179000000
H	  37.6112000000	  51.9980000000	  51.2969000000
H	  38.8403000000	  53.1352000000	  50.9919000000
H	  34.6442000000	  55.4970000000	  49.3232000000
H	  36.3427000000	  55.7801000000	  48.7815000000
H	  35.3496000000	  54.5957000000	  47.9571000000
O	  40.0625000000	  54.4766000000	  49.2618000000
C	  40.6625000000	  55.3069000000	  50.2365000000
C	  41.8680000000	  55.9351000000	  49.5492000000
C	  42.1959000000	  54.9223000000	  48.4982000000
C	  41.1431000000	  53.8299000000	  48.6581000000
C	  39.5221000000	  56.3009000000	  50.4483000000
H	  40.9354000000	  54.8384000000	  51.1327000000
H	  41.5683000000	  56.8842000000	  49.0874000000
H	  42.7140000000	  56.0555000000	  50.2297000000
H	  41.9227000000	  55.4708000000	  47.6014000000
H	  43.1903000000	  54.5424000000	  48.4791000000
H	  41.4866000000	  52.8799000000	  49.2124000000
H	  40.8798000000	  53.4718000000	  47.6629000000
H	  38.6546000000	  55.8488000000	  50.8469000000
H	  39.7107000000	  57.0526000000	  51.2894000000
H	  39.4399000000	  56.9449000000	  49.4941000000
O	  38.7130000000	  52.5070000000	  47.0863000000
C	  38.8935000000	  51.3260000000	  47.9277000000
C	  37.5895000000	  50.4237000000	  47.6685000000
C	  36.7887000000	  51.3289000000	  46.6997000000
C	  37.8312000000	  52.2062000000	  46.0131000000
C	  40.1687000000	  50.5504000000	  47.5656000000
H	  38.8111000000	  51.4971000000	  48.9655000000
H	  37.9137000000	  49.4110000000	  47.3159000000
H	  37.0823000000	  50.3555000000	  48.6461000000
H	  36.1073000000	  50.7892000000	  46.0246000000
H	  36.2163000000	  52.0072000000	  47.2969000000
H	  37.3439000000	  53.0444000000	  45.5843000000
H	  38.3463000000	  51.6280000000	  45.2638000000
H	  40.3055000000	  49.6714000000	  48.1923000000
H	  40.1431000000	  50.1253000000	  46.6001000000
H	  40.9843000000	  51.1877000000	  47.6307000000
N	  39.7940000000	  55.3833000000	  44.8717000000
S	  39.9511000000	  54.5200000000	  43.5828000000
O	  38.8840000000	  53.5354000000	  43.4360000000
O	  40.3430000000	  55.1950000000	  42.4240000000
C	  41.4397000000	  53.5584000000	  43.9691000000
F	  41.2723000000	  53.0806000000	  45.1623000000
F	  42.5206000000	  54.3310000000	  43.9102000000
F	  41.6640000000	  52.5362000000	  43.2229000000
S	  38.4117000000	  55.8027000000	  45.5609000000
O	  38.1008000000	  55.0571000000	  46.7809000000
O	  37.3728000000	  56.0440000000	  44.5664000000
C	  38.8227000000	  57.5224000000	  46.1224000000
F	  39.8809000000	  57.5659000000	  46.9729000000
F	  39.1149000000	  58.3800000000	  45.1518000000
F	  37.8287000000	  57.9842000000	  46.8069000000
