28

Li	  48.0203000000	  23.5515000000	  21.1556000000
O	  49.9361000000	  23.0612000000	  24.7823000000
O	  48.8153000000	  23.3213000000	  22.9388000000
C	  48.8108000000	  22.3021000000	  24.9775000000
C	  48.2022000000	  22.2170000000	  23.5954000000
C	  49.6260000000	  23.9431000000	  23.8359000000
H	  48.9242000000	  21.4183000000	  25.5093000000
H	  48.1045000000	  22.9196000000	  25.5300000000
H	  48.5981000000	  21.3916000000	  23.0682000000
H	  47.0968000000	  22.1450000000	  23.5251000000
H	  49.1162000000	  24.7606000000	  24.2905000000
H	  50.4738000000	  24.2995000000	  23.2629000000
S	  46.2280000000	  24.3931000000	  20.6700000000
S	  47.2369000000	  25.8058000000	  21.8119000000
S	  45.9442000000	  26.2765000000	  23.3031000000
S	  45.1301000000	  25.9760000000	  28.3056000000
S	  45.2546000000	  24.5731000000	  29.8438000000
S	  43.3739000000	  24.1831000000	  30.6806000000
S	  44.8892000000	  24.9957000000	  26.4706000000
S	  46.4630000000	  25.3957000000	  25.0977000000
S	  49.5096000000	  23.7150000000	  19.7371000000
S	  48.5543000000	  21.9318000000	  19.2136000000
S	  49.1954000000	  20.3584000000	  20.4417000000
S	  48.6186000000	  16.7473000000	  17.5889000000
S	  49.7034000000	  15.5110000000	  16.1934000000
S	  49.1523000000	  13.4446000000	  16.5048000000
S	  49.7122000000	  17.1141000000	  19.3161000000
S	  50.4455000000	  19.0452000000	  19.2628000000
28

Li	  48.0203000000	  23.5515000000	  21.1556000000
O	  49.9361000000	  23.0612000000	  24.7823000000
O	  48.8153000000	  23.3213000000	  22.9388000000
C	  48.8108000000	  22.3021000000	  24.9775000000
C	  48.2022000000	  22.2170000000	  23.5954000000
C	  49.6260000000	  23.9431000000	  23.8359000000
H	  48.9242000000	  21.4183000000	  25.5093000000
H	  48.1045000000	  22.9196000000	  25.5300000000
H	  48.5981000000	  21.3916000000	  23.0682000000
H	  47.0968000000	  22.1450000000	  23.5251000000
H	  49.1162000000	  24.7606000000	  24.2905000000
H	  50.4738000000	  24.2995000000	  23.2629000000
S	  46.2280000000	  24.3931000000	  20.6700000000
S	  47.2369000000	  25.8058000000	  21.8119000000
S	  45.9442000000	  26.2765000000	  23.3031000000
S	  45.1301000000	  25.9760000000	  28.3056000000
S	  45.2546000000	  24.5731000000	  29.8438000000
S	  43.3739000000	  24.1831000000	  30.6806000000
S	  44.8892000000	  24.9957000000	  26.4706000000
S	  46.4630000000	  25.3957000000	  25.0977000000
S	  49.5096000000	  23.7150000000	  19.7371000000
S	  48.5543000000	  21.9318000000	  19.2136000000
S	  49.1954000000	  20.3584000000	  20.4417000000
S	  48.6186000000	  16.7473000000	  17.5889000000
S	  49.7034000000	  15.5110000000	  16.1934000000
S	  49.1523000000	  13.4446000000	  16.5048000000
S	  49.7122000000	  17.1141000000	  19.3161000000
S	  50.4455000000	  19.0452000000	  19.2628000000
