48

Li	  40.6971000000	  12.5978000000	  55.9409000000
O	  41.1978000000	  14.3616000000	  56.4524000000
C	  41.9861000000	  14.7652000000	  57.5702000000
C	  41.3614000000	  16.0672000000	  58.0649000000
C	  40.4451000000	  16.4523000000	  56.9147000000
C	  40.7932000000	  15.5104000000	  55.7898000000
C	  42.0774000000	  13.6364000000	  58.6116000000
H	  42.9907000000	  14.9272000000	  57.1558000000
H	  40.7084000000	  15.9244000000	  58.9931000000
H	  42.1057000000	  16.7783000000	  58.3156000000
H	  39.5095000000	  16.1967000000	  57.2606000000
H	  40.4497000000	  17.4863000000	  56.6491000000
H	  41.6526000000	  15.8134000000	  55.1725000000
H	  39.9686000000	  15.3903000000	  55.1485000000
H	  42.6461000000	  13.8955000000	  59.4343314259
H	  41.1042000000	  13.2226000000	  58.9787000000
H	  42.5628000000	  12.7619000000	  58.3003000000
O	  39.5071000000	  11.7514000000	  57.0128000000
C	  38.8269000000	  10.4920000000	  56.9841000000
C	  37.3862000000	  10.8064000000	  56.7464000000
C	  37.2683000000	  12.2366000000	  57.1541000000
C	  38.6201000000	  12.7532000000	  57.5441000000
C	  39.4712000000	   9.8160500000	  55.8250000000
H	  39.0239000000	  10.0160000000	  57.8472000000
H	  36.9875000000	  10.6542000000	  55.7745000000
H	  36.9686000000	  10.1733000000	  57.4873000000
H	  36.9972000000	  12.8413000000	  56.2537000000
H	  36.5624000000	  12.4019000000	  57.9598000000
H	  38.7670000000	  12.8028000000	  58.6282000000
H	  38.8267000000	  13.7533000000	  57.1658000000
H	  39.3248000000	   8.7581100000	  55.9022000000
H	  39.0214000000	  10.2269000000	  54.9378000000
H	  40.5333000000	   9.9826800000	  55.8966000000
N	  38.8152000000	  14.1939000000	  52.7069000000
S	  39.1001000000	  12.6959000000	  52.9711000000
O	  39.7095000000	  12.4988000000	  54.2502000000
O	  38.1625000000	  11.7512000000	  52.4516000000
C	  40.5307000000	  12.2718000000	  51.9181000000
F	  41.5875000000	  13.0769000000	  52.3097000000
F	  40.2703000000	  12.6322000000	  50.6801000000
F	  40.9751000000	  11.0403000000	  51.8934000000
S	  37.5051000000	  14.9182000000	  53.0995000000
O	  37.6475000000	  16.3030000000	  53.4563000000
O	  36.5179000000	  14.1199000000	  53.8329000000
C	  36.7903000000	  15.0978000000	  51.4098000000
F	  37.4871000000	  15.9713000000	  50.7598000000
F	  36.8892000000	  14.0100000000	  50.6486000000
F	  35.5359000000	  15.4640000000	  51.3701000000
48

Li	  40.6971000000	  12.5978000000	  55.9409000000
O	  41.1978000000	  14.3616000000	  56.4524000000
C	  41.9861000000	  14.7652000000	  57.5702000000
C	  41.3614000000	  16.0672000000	  58.0649000000
C	  40.4451000000	  16.4523000000	  56.9147000000
C	  40.7932000000	  15.5104000000	  55.7898000000
C	  42.0774000000	  13.6364000000	  58.6116000000
H	  42.9907000000	  14.9272000000	  57.1558000000
H	  40.7084000000	  15.9244000000	  58.9931000000
H	  42.1057000000	  16.7783000000	  58.3156000000
H	  39.5095000000	  16.1967000000	  57.2606000000
H	  40.4497000000	  17.4863000000	  56.6491000000
H	  41.6526000000	  15.8134000000	  55.1725000000
H	  39.9686000000	  15.3903000000	  55.1485000000
H	  42.6461000000	  13.8955000000	  59.4343314259
H	  41.1042000000	  13.2226000000	  58.9787000000
H	  42.5628000000	  12.7619000000	  58.3003000000
O	  39.5071000000	  11.7514000000	  57.0128000000
C	  38.8269000000	  10.4920000000	  56.9841000000
C	  37.3862000000	  10.8064000000	  56.7464000000
C	  37.2683000000	  12.2366000000	  57.1541000000
C	  38.6201000000	  12.7532000000	  57.5441000000
C	  39.4712000000	   9.8160500000	  55.8250000000
H	  39.0239000000	  10.0160000000	  57.8472000000
H	  36.9875000000	  10.6542000000	  55.7745000000
H	  36.9686000000	  10.1733000000	  57.4873000000
H	  36.9972000000	  12.8413000000	  56.2537000000
H	  36.5624000000	  12.4019000000	  57.9598000000
H	  38.7670000000	  12.8028000000	  58.6282000000
H	  38.8267000000	  13.7533000000	  57.1658000000
H	  39.3248000000	   8.7581100000	  55.9022000000
H	  39.0214000000	  10.2269000000	  54.9378000000
H	  40.5333000000	   9.9826800000	  55.8966000000
N	  38.8152000000	  14.1939000000	  52.7069000000
S	  39.1001000000	  12.6959000000	  52.9711000000
O	  39.7095000000	  12.4988000000	  54.2502000000
O	  38.1625000000	  11.7512000000	  52.4516000000
C	  40.5307000000	  12.2718000000	  51.9181000000
F	  41.5875000000	  13.0769000000	  52.3097000000
F	  40.2703000000	  12.6322000000	  50.6801000000
F	  40.9751000000	  11.0403000000	  51.8934000000
S	  37.5051000000	  14.9182000000	  53.0995000000
O	  37.6475000000	  16.3030000000	  53.4563000000
O	  36.5179000000	  14.1199000000	  53.8329000000
C	  36.7903000000	  15.0978000000	  51.4098000000
F	  37.4871000000	  15.9713000000	  50.7598000000
F	  36.8892000000	  14.0100000000	  50.6486000000
F	  35.5359000000	  15.4640000000	  51.3701000000
