41

Li	  27.1579000000	  33.4821000000	   4.2549000000
O	  23.6553000000	  31.5013000000	   4.9675100000
O	  25.7653000000	  32.2241000000	   4.8233800000
C	  24.3569000000	  30.6793000000	   5.8434500000
C	  25.6478000000	  31.4702000000	   6.0447100000
C	  24.6436000000	  31.8778000000	   4.0635200000
H	  23.7181000000	  30.6040000000	   6.8017000000
H	  24.6863000000	  29.7386000000	   5.4677000000
H	  25.5649000000	  32.2612000000	   6.8243900000
H	  26.4774000000	  30.8435000000	   6.2323200000
H	  24.8085000000	  31.1023000000	   3.2673000000
H	  24.3734000000	  32.6930000000	   3.4316200000
O	  28.6737000000	  32.7608000000	   5.3448200000
C	  28.9349000000	  32.4420000000	   7.6207900000
C	  29.6586000000	  31.3565000000	   7.0158400000
C	  29.0098000000	  33.5020000000	   6.5733000000
C	  29.2230000000	  31.4421000000	   5.5493100000
H	  29.5370000000	  32.8076000000	   8.4715100000
H	  27.9659000000	  32.0145000000	   7.9240200000
H	  30.7521000000	  31.4240000000	   6.9975100000
H	  29.3209000000	  30.4806000000	   7.4820500000
H	  28.3740000000	  34.2648000000	   6.9027500000
H	  30.0325000000	  33.9413000000	   6.4977500000
H	  30.1005000000	  31.3058000000	   4.9535800000
H	  28.4818000000	  30.7208000000	   5.3258300000
S	  35.3107000000	  27.6000000000	   3.1492700000
S	  33.6259000000	  26.6771000000	   2.4144900000
S	  32.9539000000	  27.4794000000	   0.6016182124
S	  29.4630000000	  30.1842000000	   2.5967400000
S	  27.5044000000	  30.8228000000	   2.2242300000
S	  27.3540000000	  32.9992000000	   2.1024400000
S	  30.2497000000	  29.7433000000	   0.7688182124
S	  30.8098000000	  27.7239000000	   0.4252182124
S	  36.6180000000	  39.3207000000	   7.0941100000
S	  34.9507000000	  39.8743000000	   6.0771300000
S	  33.7048000000	  38.2018000000	   5.6774200000
S	  28.6925000000	  37.0898000000	   6.8007000000
S	  27.8315000000	  37.0633000000	   4.8714200000
S	  26.2792000000	  35.5674000000	   4.7029200000
S	  30.7491000000	  36.5192000000	   6.8254900000
S	  32.1374000000	  38.0655000000	   7.1259900000
