44

Li	  36.5336000000	   4.9138000000	   4.9607600000
O	  38.0216000000	   5.8348300000	   6.0431800000
C	  39.5050000000	   7.2306100000	   7.0769200000
C	  39.7703000000	   5.7927700000	   7.4919400000
C	  38.6557000000	   7.1257400000	   5.8146400000
C	  39.0135000000	   4.9499100000	   6.4461300000
H	  40.4067000000	   7.8646200000	   6.9110600000
H	  38.9199000000	   7.7143600000	   7.9277100000
H	  40.8736000000	   5.5073600000	   7.4011200000
H	  39.4117000000	   5.6364000000	   8.5254500000
H	  38.0044000000	   7.9701900000	   5.7384100000
H	  39.2608000000	   7.1399000000	   4.9023100000
H	  39.7801000000	   4.7770200000	   5.7068500000
H	  38.8026000000	   4.0022300000	   6.8259400000
N	  35.9480000000	   3.2671100000	   1.9729800000
S	  37.3716000000	   3.8436100000	   2.1482400000
O	  37.7209000000	   4.8504500000	   1.1765400000
O	  37.8327000000	   4.0630600000	   3.5032200000
C	  38.3527000000	   2.3793100000	   1.6039900000
F	  39.6297000000	   2.5023200000	   1.8356600000
F	  38.2082000000	   2.1065200000	   0.3234182124
F	  37.9828000000	   1.3364200000	   2.3112500000
S	  34.8838000000	   3.0105300000	   3.0494500000
O	  35.0307000000	   3.9754800000	   4.1474700000
O	  34.6778000000	   1.5875400000	   3.3545700000
C	  33.3103000000	   3.4961600000	   2.2798300000
F	  32.3396000000	   3.6534000000	   3.1504900000
F	  33.4545000000	   4.6386000000	   1.6577700000
F	  32.9280000000	   2.6259600000	   1.3904500000
N	  34.6568000000	   8.1753900000	   6.1037100000
S	  35.2339000000	   7.9366400000	   4.6773600000
O	  35.7608000000	   9.0571000000	   3.9712400000
O	  35.7274000000	   6.6377100000	   4.3959300000
C	  33.5831000000	   7.7593900000	   3.8630600000
F	  33.8173000000	   7.5373500000	   2.5964300000
F	  32.8638000000	   8.8297200000	   3.9711500000
F	  32.8427000000	   6.7684500000	   4.2913200000
S	  34.6452000000	   9.6076300000	   6.7713500000
O	  33.6557000000	   9.8073800000	   7.7637000000
O	  34.7498000000	  10.6957000000	   5.8587300000
C	  36.0744000000	   9.8640800000	   7.8109200000
F	  36.0722000000	  11.0461000000	   8.4155900000
F	  36.0097000000	   9.0310400000	   8.7930900000
F	  37.2745000000	   9.6957300000	   7.2212700000
