39

Li	  32.1061000000	   4.5785100000	  22.8487000000
O	  30.4606000000	   3.1988000000	  26.1596000000
O	  31.7054000000	   3.4729000000	  24.3732000000
C	  31.6453000000	   3.5038800000	  26.7083000000
C	  32.4411000000	   3.8416600000	  25.4661000000
C	  30.6641000000	   2.7379200000	  24.8649000000
H	  31.4138000000	   4.3439300000	  27.3635000000
H	  32.0431000000	   2.6462700000	  27.2986000000
H	  32.6239000000	   4.8944100000	  25.4834000000
H	  33.4830000000	   3.4258500000	  25.5375000000
H	  31.0099000000	   1.6820200000	  24.8237000000
H	  29.8010000000	   2.9222200000	  24.1924000000
O	  30.3160000000	   5.1664000000	  22.2942000000
O	  29.9088000000	   7.0308600000	  21.1337000000
C	  29.4072000000	   5.8774600000	  23.0919000000
C	  28.8782000000	   6.8482200000	  22.1264000000
C	  30.3712000000	   5.7445400000	  21.0529000000
H	  28.5896000000	   5.1838400000	  23.3330000000
H	  29.8623000000	   6.2185000000	  23.9883000000
H	  28.0211000000	   6.4340300000	  21.6147000000
H	  28.5238000000	   7.7469900000	  22.6754000000
H	  31.3576000000	   5.5752100000	  20.5706000000
H	  29.6818000000	   5.2432000000	  20.3897000000
S	  43.1208000000	   7.2624800000	  26.6352000000
S	  41.8675000000	   5.6981800000	  26.0215000000
S	  39.9779000000	   5.9754300000	  26.8435000000
S	  35.7873000000	   4.6181700000	  24.2273000000
S	  35.0733000000	   4.9784000000	  22.3656000000
S	  33.4830000000	   6.3396700000	  22.5427000000
S	  37.8608000000	   4.8924500000	  24.1775000000
S	  38.5290000000	   6.5819800000	  25.3588000000
S	  28.0780000000	   9.6886400000	  14.0899000000
S	  29.7189000000	   8.6235900000	  15.0323000000
S	  29.7855000000	   6.5241200000	  14.7398000000
S	  30.4642000000	   2.6279600000	  18.3409000000
S	  30.5833000000	   2.4900600000	  20.4757000000
S	  32.5329000000	   2.7219100000	  21.4151000000
S	  29.4426000000	   4.3557500000	  17.6889000000
S	  30.6957000000	   5.5165900000	  16.4329000000
