27

Li	  21.2456000000	  21.1404000000	  57.1399000000
O	  22.7281000000	  21.0292000000	  58.2764000000
C	  24.6552000000	  19.8809000000	  58.8819000000
C	  24.4676000000	  21.0967000000	  59.7350217876
C	  23.4809000000	  19.8687000000	  57.9272000000
C	  23.6246000000	  21.9825000000	  58.7543000000
H	  24.5951000000	  18.9979000000	  59.5189317876
H	  25.5413000000	  19.8492000000	  58.2389000000
H	  23.8449000000	  20.8743000000	  60.6439017876
H	  25.3776000000	  21.5597000000	  60.1318417876
H	  23.7730000000	  20.0144000000	  56.9145000000
H	  22.7831000000	  18.9967000000	  57.9383000000
H	  23.1610000000	  22.7478000000	  59.2898497876
H	  24.3287000000	  22.2968000000	  58.0501000000
O	  20.0903000000	  19.9032000000	  58.1387000000
C	  18.0703000000	  20.5929000000	  59.0208000000
C	  18.8827000000	  19.7359000000	  60.0182917876
C	  18.6978000000	  20.2183000000	  57.7524000000
C	  20.0276000000	  18.9700000000	  59.2830077876
H	  18.2121000000	  21.6417000000	  59.2293207876
H	  17.0093000000	  20.3661000000	  58.9956000000
H	  19.2928000000	  20.4192000000	  60.6720317876
H	  18.2805000000	  18.9350000000	  60.4707917876
H	  18.1600000000	  19.3694000000	  57.2510000000
H	  18.6805000000	  21.0477000000	  57.0686000000
H	  21.0065000000	  18.8126000000	  59.8404917876
H	  19.6582000000	  18.0111000000	  58.8021000000
