57

Li	  27.7360000000	  50.4949000000	  21.8636000000
O	  29.0646000000	  49.8158000000	  22.9092000000
C	  29.4861000000	  51.2217000000	  24.7522000000
C	  30.6028000000	  51.3181000000	  23.7243000000
C	  28.9192000000	  49.8996000000	  24.3278000000
C	  30.3946000000	  50.1850000000	  22.7053000000
H	  28.8183000000	  52.0594000000	  24.6638000000
H	  29.9351000000	  51.1822000000	  25.7873000000
H	  30.5811000000	  52.2481000000	  23.2096000000
H	  31.5970000000	  51.2610000000	  24.0963000000
H	  29.4892000000	  49.0981000000	  24.7978000000
H	  27.8559000000	  49.7509000000	  24.5638000000
H	  30.5120000000	  50.5306000000	  21.7054000000
H	  31.0428000000	  49.3672000000	  22.9170000000
O	  26.3970000000	  49.3122000000	  21.9592000000
C	  24.3516000000	  48.0133000000	  21.5704000000
C	  25.5537000000	  47.1380000000	  21.7804000000
C	  24.9986000000	  49.4419000000	  21.5708000000
C	  26.5014000000	  48.0927000000	  22.6379000000
H	  23.6146000000	  47.8675000000	  22.4309000000
H	  23.8627000000	  47.7038000000	  20.6037000000
H	  25.3403000000	  46.1492000000	  22.0560000000
H	  26.1086000000	  46.9717000000	  20.8368000000
H	  24.8604000000	  49.8319000000	  20.5306000000
H	  24.5296000000	  50.0898000000	  22.2896000000
H	  26.2831000000	  48.1903000000	  23.7290000000
H	  27.5303000000	  47.5895000000	  22.5950000000
N	  26.3611000000	  53.7428000000	  21.0822000000
S	  27.8078000000	  53.5315000000	  20.6110000000
O	  28.3976000000	  52.2100000000	  20.9690000000
O	  28.0392000000	  54.0911000000	  19.2814000000
C	  28.8470000000	  54.6844000000	  21.6265000000
F	  28.8225000000	  55.8981000000	  21.2200000000
F	  30.1639000000	  54.3977000000	  21.6388000000
F	  28.4818000000	  54.7730000000	  22.9032000000
S	  25.5145000000	  52.9321000000	  22.1430000000
O	  26.3202000000	  52.0723000000	  22.9621000000
O	  24.2450000000	  52.4172000000	  21.6360000000
C	  25.0431000000	  54.2901000000	  23.2259000000
F	  24.6779000000	  53.8579000000	  24.4059000000
F	  26.0324000000	  55.1830000000	  23.4586000000
F	  24.0965000000	  54.9806000000	  22.6097000000
N	  28.6789000000	  47.9886000000	  18.2555000000
S	  29.4202000000	  48.5562000000	  19.4097000000
O	  30.7268000000	  49.0922000000	  19.1367000000
O	  28.4981000000	  49.2679000000	  20.3149000000
C	  29.7957000000	  47.0952000000	  20.4581000000
F	  30.4660000000	  47.3813000000	  21.5433000000
F	  30.4827000000	  46.1920000000	  19.7907000000
F	  28.7276000000	  46.4429000000	  20.8416000000
S	  28.0910000000	  48.6232000000	  16.9532000000
O	  28.0466000000	  47.7495000000	  15.8474000000
O	  28.5831000000	  49.9843000000	  16.6989000000
C	  26.2589000000	  48.8447000000	  17.4774000000
F	  25.5466000000	  48.9900000000	  16.3626000000
F	  25.7665000000	  47.8777000000	  18.2078000000
F	  26.0770000000	  49.9473000000	  18.1990000000
