33

Li	  51.8741000000	  56.3508000000	   7.5618100000
O	  54.9142000000	  58.9863000000	   7.3837000000
O	  53.4373000000	  57.3219000000	   7.0817300000
C	  54.4361000000	  59.0959000000	   6.0846300000
C	  53.7570000000	  57.7637000000	   5.7498600000
C	  54.5164000000	  57.7266000000	   7.8800900000
H	  53.6656000000	  59.8574216381	   6.1828200000
H	  55.1276000000	  59.3499016381	   5.3382700000
H	  52.8732000000	  57.8859000000	   5.1070600000
H	  54.4047000000	  57.0408000000	   5.2183300000
H	  55.2520000000	  56.9321000000	   7.9334600000
H	  54.1659000000	  57.8995000000	   8.8871000000
O	  52.1968000000	  54.5318000000	   7.7971800000
C	  53.5707000000	  52.7959000000	   6.9995000000
C	  52.3519000000	  52.2008000000	   7.7065900000
C	  53.3571000000	  54.2701000000	   7.0582200000
C	  51.8421000000	  53.3648000000	   8.5980200000
H	  53.8080000000	  52.3630000000	   6.0513400000
H	  54.4971000000	  52.6249000000	   7.4212400000
H	  51.5826000000	  51.9640000000	   7.0335900000
H	  52.6532000000	  51.2114000000	   8.1342500000
H	  54.2280000000	  54.9182000000	   7.4192800000
H	  53.1284000000	  54.6658000000	   6.0940200000
H	  50.7452000000	  53.2128000000	   8.7994700000
H	  52.3528000000	  53.3125000000	   9.6016300000
S	  50.5829000000	  56.5049000000	   5.9078500000
S	  49.6972000000	  56.5007000000	   7.8453100000
S	  50.9713000000	  57.5139000000	   9.2886700000
S	  54.9237000000	  57.1920000000	  11.9073000000
S	  55.8819000000	  56.2272000000	  13.5604000000
S	  57.4965000000	  57.4470000000	  14.4118000000
S	  52.8961000000	  57.2086000000	  12.1471000000
S	  51.6775000000	  56.1743000000	  10.7188000000
