57

Li	   5.5896800000	  38.7997000000	  18.2357000000
O	   6.2368200000	  37.8009000000	  19.7371000000
C	   8.2493200000	  36.8436000000	  20.6431000000
C	   7.1895900000	  35.8096000000	  20.6431000000
C	   7.4494300000	  38.1314000000	  20.5335000000
C	   5.9470200000	  36.4731000000	  20.0109000000
H	   8.9232500000	  36.8192000000	  19.7933000000
H	   8.8374300000	  36.7671000000	  21.5616000000
H	   7.6023500000	  35.0064000000	  20.1178000000
H	   6.9689600000	  35.5589000000	  21.6561000000
H	   7.1557900000	  38.4882000000	  21.5907000000
H	   8.0532200000	  38.8762000000	  20.0779000000
H	   5.7406700000	  35.9639000000	  19.0455000000
H	   5.0509200000	  36.3777000000	  20.5892000000
O	   5.6492500000	  40.7686000000	  17.6314000000
C	   4.9303000000	  42.9590000000	  17.5405000000
C	   6.4283100000	  43.0378000000	  17.8625000000
C	   4.8795900000	  41.6366000000	  16.7864000000
C	   6.6783800000	  41.5843000000	  18.2894000000
H	   4.5122300000	  43.7624000000	  16.8891000000
H	   4.3356500000	  42.9961000000	  18.4453000000
H	   6.9117000000	  43.2969000000	  16.9101000000
H	   6.7186300000	  43.8273000000	  18.5632000000
H	   3.8875600000	  41.1689000000	  16.6796000000
H	   5.4969500000	  41.5152000000	  15.8652000000
H	   7.7050900000	  41.2239000000	  18.0628000000
H	   6.4731400000	  41.4101000000	  19.4216000000
N	   7.5767800000	  37.8699000000	  14.7261000000
S	   8.1063300000	  39.2939000000	  14.4171000000
O	   7.9021800000	  39.6723000000	  13.0070000000
O	   7.8931900000	  40.2814000000	  15.4440000000
C	   9.8918600000	  38.9265000000	  14.5014000000
F	  10.3494000000	  38.8330000000	  15.7477000000
F	  10.6115000000	  39.8692000000	  13.9270000000
F	  10.2948000000	  37.8512000000	  13.8624000000
S	   6.5514200000	  37.5209000000	  15.7965000000
O	   5.2224700000	  37.5972000000	  15.2122000000
O	   6.8367200000	  37.9583000000	  17.1306000000
C	   6.8193100000	  35.7562000000	  15.7865000000
F	   6.2772000000	  35.1495000000	  16.8559000000
F	   6.2413900000	  35.1491000000	  14.7580000000
F	   8.1027300000	  35.4792000000	  15.7590000000
N	   1.3717800000	  39.0375000000	  18.1037000000
S	   2.4535300000	  38.0219000000	  17.6204000000
O	   2.4099400000	  37.7498000000	  16.2030000000
O	   3.7883700000	  38.2481000000	  18.1933000000
C	   2.1124000000	  36.4279000000	  18.4768000000
F	   3.1118500000	  35.5919000000	  18.3681000000
F	   0.9263720000	  35.9042000000	  18.1439000000
F	   2.0710600000	  36.5998000000	  19.8085000000
S	   0.0626435197	  39.5990000000	  17.3978000000
O	  -0.9529564803	  40.1524000000	  18.2627000000
O	  -0.4089564803	  38.8367000000	  16.2800000000
C	   0.7756435197	  41.0868000000	  16.6728000000
F	   1.5104300000	  41.7788000000	  17.4871000000
F	   1.5618200000	  40.8038000000	  15.6356000000
F	  -0.1316564803	  41.9354000000	  16.1945000000
