46

Li	  16.2660000000	  17.2090000000	  52.1734000000
O	  15.4162000000	  16.8091000000	  53.8082000000
O	  15.1077000000	  16.6633000000	  56.0202000000
C	  15.5021000000	  15.4273000000	  54.0720000000
C	  15.0258000000	  15.3130000000	  55.5074000000
C	  15.5664000000	  17.4513000000	  54.9864000000
H	  14.9457000000	  14.6982000000	  53.4240000000
H	  16.5580000000	  15.2453000000	  54.0197000000
H	  13.9879000000	  14.9880000000	  55.4017000000
H	  15.6895000000	  14.6747000000	  56.1449000000
H	  16.6621000000	  17.5979000000	  55.1686000000
H	  15.1596000000	  18.4077000000	  54.7943000000
O	  13.6718000000	  16.4357000000	  50.9122000000
O	  15.2604000000	  17.9427000000	  50.6868000000
C	  13.0961000000	  17.6441000000	  51.4479000000
C	  14.2121000000	  18.6837000000	  51.2496000000
C	  14.5997000000	  16.9408000000	  49.9968000000
H	  12.0659000000	  17.9523000000	  51.1378000000
H	  13.0209000000	  17.3895000000	  52.5227000000
H	  13.9937000000	  19.4665000000	  50.5291000000
H	  14.4272000000	  19.2510000000	  52.1959000000
H	  15.2676000000	  16.1648000000	  49.6836000000
H	  14.1063000000	  17.4009000000	  49.0760000000
N	  16.6471000000	  20.8766000000	  51.3217000000
S	  16.7712000000	  21.7688000000	  50.0580000000
O	  18.0725000000	  22.1034000000	  49.6482000000
O	  15.8159000000	  21.3861000000	  49.0085000000
C	  16.0035000000	  23.2977000000	  50.7299000000
F	  15.6062000000	  24.0655000000	  49.7428000000
F	  16.8039000000	  24.0746000000	  51.4889000000
F	  14.9697000000	  22.9537000000	  51.5111000000
S	  17.7281000000	  19.7862000000	  51.7065000000
O	  18.5157000000	  19.2895000000	  50.5630000000
O	  17.1824000000	  18.8622000000	  52.6229000000
C	  18.8758000000	  20.8249000000	  52.7588000000
F	  18.2506000000	  21.2886000000	  53.7476000000
F	  19.9631000000	  20.2116000000	  53.2287000000
F	  19.2239000000	  21.8180000000	  51.9697000000
S	  17.5017000000	  15.7622000000	  51.3563000000
S	  18.8807000000	  16.2354000000	  52.9182000000
S	  19.2146000000	  14.7782000000	  54.3648000000
S	  20.5920000000	  14.1368000000	  59.3579617876
S	  20.3992000000	  12.0250000000	  59.5187117876
S	  22.0998000000	  11.2271000000	  60.5594817876
S	  20.9968000000	  14.8034000000	  57.3534000000
S	  19.3067000000	  15.4287000000	  56.3350000000
