37

Li	  37.2336000000	  14.1146000000	  29.2172000000
O	  38.7394000000	  13.3502000000	  29.5041000000
C	  40.6065000000	  12.8921000000	  28.3509000000
C	  40.1983000000	  11.5837000000	  29.0074000000
C	  39.9765000000	  13.9412000000	  29.2928000000
C	  39.0300000000	  11.9754000000	  29.9459000000
H	  40.1929000000	  12.9192000000	  27.3899000000
H	  41.6600000000	  13.0657000000	  28.1799000000
H	  39.9693000000	  10.6652000000	  28.4370000000
H	  41.0925000000	  11.3923000000	  29.6361000000
H	  40.5534000000	  13.9579000000	  30.2326000000
H	  39.9996000000	  14.9627000000	  28.8764000000
H	  38.2402000000	  11.3691000000	  29.7462000000
H	  39.3290000000	  11.8388000000	  30.9490000000
N	  37.1554000000	  14.7803000000	  25.8049000000
S	  36.8346000000	  13.3135000000	  26.1906000000
O	  37.5118000000	  12.3758000000	  25.3254000000
O	  36.6932000000	  13.0362000000	  27.5894000000
C	  35.2181000000	  13.2045000000	  25.4593000000
F	  34.3179000000	  14.1009000000	  25.8741000000
F	  34.7115000000	  12.0015000000	  25.6655000000
F	  35.3944000000	  13.3678000000	  24.1638000000
S	  36.9521000000	  16.0390000000	  26.7028000000
O	  37.1869000000	  15.6873000000	  28.0468000000
O	  35.7774000000	  16.8148000000	  26.4080000000
C	  38.3448000000	  17.1115000000	  26.1742000000
F	  39.5258000000	  16.6241000000	  26.5572000000
F	  38.5646000000	  17.2193000000	  24.8859000000
F	  38.3090000000	  18.3317000000	  26.7107000000
S	  30.4413000000	  23.1462000000	  28.5194000000
S	  31.0202000000	  21.3584000000	  29.6220000000
S	  32.4398000000	  20.1569000000	  28.5465000000
S	  33.2832000000	  15.3067000000	  30.0393000000
S	  34.9934000000	  14.0967000000	  29.9742000000
S	  36.5986000000	  14.8151000000	  31.1875000000
S	  33.0610000000	  16.5338000000	  28.3794000000
S	  31.6316000000	  18.0693000000	  28.3984000000
