22

Li	  47.2164000000	  46.6066000000	  14.7562000000
O	  47.0505000000	  48.3645000000	  14.1973000000
C	  47.2598000000	  50.6191000000	  13.2037000000
C	  47.6154000000	  49.5101000000	  12.2665000000
C	  47.0068000000	  49.7574000000	  14.4774000000
C	  46.7378000000	  48.3480000000	  12.7932000000
H	  46.3535000000	  51.1239000000	  12.9719000000
H	  47.9741000000	  51.3932000000	  13.3479000000
H	  47.3280000000	  49.6435000000	  11.2190000000
H	  48.6850000000	  49.3156000000	  12.3337000000
H	  47.7098000000	  49.9804000000	  15.2163000000
H	  46.0270000000	  49.9586000000	  14.8524000000
H	  45.6849000000	  48.5380000000	  12.5084000000
H	  46.9336000000	  47.3613000000	  12.3183000000
S	  48.9505000000	  45.4169000000	  13.9265000000
S	  48.2424000000	  44.9085000000	  11.9739000000
S	  46.6846000000	  43.5901000000	  11.9786000000
S	  43.9527000000	  46.6494000000	  14.0874000000
S	  44.1717000000	  46.6058000000	  16.2162000000
S	  46.2186000000	  46.2677000000	  16.7140000000
S	  43.7779000000	  44.7741000000	  13.2817000000
S	  44.8613000000	  44.5966000000	  11.4374000000
