20

Li	  33.0723000000	  28.5855000000	  10.7623000000
O	  32.2754000000	  29.6206000000	  11.8857000000
O	  31.9585000000	  31.6551000000	  12.7937000000
C	  32.7785000000	  29.5035000000	  13.1868000000
C	  32.2653000000	  30.7660000000	  13.9291000000
C	  31.4494000000	  30.7863000000	  11.8736000000
H	  32.3794000000	  28.6703000000	  13.7201000000
H	  33.8470000000	  29.4089000000	  13.0639000000
H	  31.3240000000	  30.4856000000	  14.4450000000
H	  33.0224000000	  31.0860000000	  14.5951000000
H	  31.3154000000	  31.2281000000	  10.8985000000
H	  30.4503000000	  30.4445000000	  12.2497000000
S	  32.3030000000	  26.6183000000	  10.6207000000
S	  30.7959000000	  26.4432000000	  12.1736000000
S	  29.1907000000	  27.9181000000	  12.2003000000
S	  25.4636000000	  27.9644000000	   9.4466600000
S	  24.1977000000	  26.3798000000	   8.8223500000
S	  22.3102000000	  27.2128000000	   8.2356000000
S	  25.7212000000	  28.1514000000	  11.5231000000
S	  27.2798000000	  26.9964000000	  12.3216000000
