66

Li	  12.8229000000	  58.2301000000	  13.2648000000
O	  12.3527000000	  56.4920000000	  12.2132000000
O	  11.5640000000	  54.5272000000	  11.3659000000
C	  13.4310000000	  55.6710000000	  11.9456000000
C	  12.9005000000	  54.7036000000	  10.9301000000
C	  11.2276000000	  55.8024000000	  11.8368000000
H	  14.3161000000	  56.2120000000	  11.6991000000
H	  13.7425000000	  55.1199000000	  12.8721000000
H	  12.8440000000	  55.1619000000	   9.9372400000
H	  13.4726000000	  53.6768000000	  10.8847000000
H	  10.5131000000	  55.7243000000	  12.6661000000
H	  10.7241000000	  56.3812000000	  11.0928000000
O	  16.3233000000	  59.7874816381	  15.0994000000
O	  14.6318000000	  58.5143000000	  14.2948000000
C	  16.9091000000	  58.5506000000	  14.7168000000
C	  15.7310000000	  57.6570000000	  14.5847000000
C	  14.9588000000	  59.6858416381	  15.0522000000
H	  17.3391000000	  58.7161000000	  13.7715000000
H	  17.7158000000	  58.2922000000	  15.4408000000
H	  15.7614000000	  56.9506000000	  13.8384000000
H	  15.5815000000	  57.1159000000	  15.5581000000
H	  14.6925000000	  59.5423316381	  16.0900000000
H	  14.6408000000	  60.6717716381	  14.5925000000
O	  11.7861000000	  59.4712416381	  14.0229000000
C	  10.5385000000	  61.2780216381	  14.8534000000
C	  11.8870000000	  61.7388416381	  14.3602000000
C	  10.6601000000	  59.7789216381	  14.9241000000
C	  12.0807000000	  60.6681216381	  13.2759000000
H	   9.9609300000	  61.6000516381	  14.0158000000
H	  10.1197000000	  61.6897416381	  15.7789000000
H	  11.9245000000	  62.7224216381	  14.0583000000
H	  12.5280000000	  61.5760416381	  15.1613000000
H	  10.8578000000	  59.3535116381	  15.9017000000
H	   9.7623700000	  59.3621116381	  14.4899000000
H	  11.4934000000	  60.7086316381	  12.3399000000
H	  13.1560000000	  60.5014016381	  13.0590000000
N	  15.2617000000	  58.9873000000	   9.5049000000
S	  16.0348000000	  57.6665000000	   9.8696500000
O	  16.6135000000	  57.6384000000	  11.1940000000
O	  15.3735000000	  56.3749000000	   9.4696500000
C	  17.4542000000	  57.7530000000	   8.7519900000
F	  18.1074000000	  58.8534000000	   9.0374000000
F	  16.9794000000	  57.7786000000	   7.4566300000
F	  18.2237000000	  56.6822000000	   8.8539700000
S	  14.3503000000	  59.8194216381	  10.4079000000
O	  14.9351000000	  61.0326916381	  10.8550000000
O	  13.6617000000	  59.0163000000	  11.3896000000
C	  13.0352000000	  60.2600616381	   9.2341100000
F	  12.2520000000	  59.2561746381	   8.8646200000
F	  12.2547000000	  61.1409116381	   9.7566600000
F	  13.6233000000	  60.8240216381	   8.1882300000
N	  10.2280000000	  56.2153000000	  16.0484000000
S	  11.8466000000	  56.2643000000	  16.0458000000
O	  12.3038000000	  56.8262000000	  14.8096000000
O	  12.4789000000	  56.7381000000	  17.2587000000
C	  12.2960000000	  54.4683000000	  15.8598000000
F	  11.5595000000	  53.9473000000	  14.9398000000
F	  12.1119000000	  53.6573000000	  16.8849000000
F	  13.5956000000	  54.3444000000	  15.4338000000
S	   9.2303900000	  56.6267000000	  17.1210000000
O	   8.4652600000	  57.6964000000	  16.5805000000
O	   9.8286800000	  56.7568000000	  18.4649000000
C	   8.1154500000	  55.1601000000	  17.2577000000
F	   7.6616700000	  54.8642000000	  16.0763000000
F	   8.7347900000	  54.1449000000	  17.7275000000
F	   7.1043500000	  55.2570000000	  18.0289000000
