40

Li	  58.1705000000	  35.0395000000	  34.0324000000
O	  59.4829764803	  34.0394000000	  34.6707000000
O	  60.8395864803	  33.2256000000	  33.1257000000
C	  59.6743664803	  32.6999000000	  35.1461000000
C	  60.8506464803	  32.1845000000	  34.1436000000
C	  60.5442764803	  34.3653000000	  33.8728000000
H	  59.9055464803	  32.5165000000	  36.1526000000
H	  58.8145000000	  32.1318000000	  35.0134000000
H	  61.8141464803	  32.1339000000	  34.7335000000
H	  60.7639264803	  31.1631000000	  33.7146000000
H	  60.3755964803	  35.1745000000	  33.1322000000
H	  61.4208364803	  34.7289000000	  34.4493000000
O	  58.0001000000	  35.1820000000	  32.1983000000
C	  56.2193000000	  35.3942000000	  30.6446000000
C	  57.2413000000	  34.3843000000	  30.1880000000
C	  56.9387000000	  35.9440000000	  31.8925000000
C	  57.9165000000	  33.9904000000	  31.4870000000
H	  55.1961000000	  35.0427000000	  30.8882000000
H	  56.1071000000	  36.1824000000	  29.9170000000
H	  56.7765000000	  33.5808000000	  29.6859000000
H	  58.0462000000	  34.8431000000	  29.5603000000
H	  57.2864000000	  36.9674000000	  31.6260000000
H	  56.2647000000	  36.1998000000	  32.7707000000
H	  57.4157000000	  33.2799000000	  32.1508000000
H	  58.9386000000	  33.6720000000	  31.2877000000
N	  55.4706000000	  35.4842000000	  36.3842000000
S	  55.4630000000	  34.1775000000	  35.4646000000
O	  54.1205000000	  33.9030000000	  35.0242000000
O	  56.5425000000	  34.0324000000	  34.5444000000
C	  55.8884000000	  32.9860000000	  36.7970000000
F	  56.8932000000	  33.3498000000	  37.5409000000
F	  56.1596000000	  31.8623000000	  36.1747000000
F	  54.8324000000	  32.8653000000	  37.5860000000
S	  56.3429000000	  36.7514000000	  36.2320000000
O	  57.2849000000	  36.5724000000	  35.1484000000
O	  56.7230000000	  37.4354000000	  37.4373000000
C	  55.1069000000	  37.8783000000	  35.5158000000
F	  54.4012000000	  37.3204000000	  34.5415000000
F	  54.1940000000	  38.2255000000	  36.4568000000
F	  55.6722000000	  38.9565000000	  35.0886000000
