30

Li	  10.4734000000	  55.1386000000	  38.4637000000
O	   8.7465100000	  56.0383000000	  38.8451000000
C	   6.7891300000	  56.8657000000	  38.0852000000
C	   7.0980000000	  57.6014000000	  39.3507000000
C	   7.5690400000	  55.6307000000	  38.1874000000
C	   8.5854900000	  57.1707000000	  39.7537000000
H	   7.1687400000	  57.4068000000	  37.2168000000
H	   5.7420700000	  56.5590000000	  37.8613000000
H	   7.1523600000	  58.6651000000	  39.2054000000
H	   6.3244400000	  57.4601000000	  40.0801000000
H	   7.0210500000	  54.9306000000	  38.7553000000
H	   7.7484100000	  55.0334000000	  37.2830000000
H	   9.4326000000	  57.8734000000	  39.5532000000
H	   8.6755000000	  56.8475000000	  40.7671000000
S	   6.4643400000	  46.9448000000	  39.7894000000
S	   5.2243800000	  48.5349000000	  39.2337000000
S	   5.5255400000	  49.4246000000	  37.3051000000
S	   8.6373900000	  51.4466000000	  39.4118000000
S	   8.6912600000	  53.2610000000	  40.4709000000
S	  10.6873000000	  53.9940000000	  40.2915000000
S	   8.1530500000	  51.7523000000	  37.3211000000
S	   6.1401700000	  51.5458000000	  37.4070000000
S	  17.8832000000	  61.2571416381	  39.4311000000
S	  15.7519000000	  61.1891416381	  39.9437000000
S	  14.7022000000	  61.3991216381	  38.1130000000
S	  12.5043000000	  56.9213000000	  38.7045000000
S	  12.7762000000	  55.2810000000	  37.3908000000
S	  11.0360000000	  54.4872000000	  36.4836000000
S	  12.3882000000	  58.7902000000	  37.6126000000
S	  14.3013000000	  59.5758016381	  37.1028000000
