40

Li	  44.0306000000	  10.8303000000	  43.3809000000
O	  43.1147000000	  11.9513000000	  42.1569000000
C	  41.4000000000	  13.2904000000	  41.6722000000
C	  41.6182000000	  12.2120000000	  40.6026000000
C	  42.3796000000	  12.9815000000	  42.7831000000
C	  43.1355000000	  12.0979000000	  40.7844000000
H	  40.3551000000	  13.5405000000	  41.9506000000
H	  41.7067000000	  14.2329000000	  41.2433000000
H	  41.0763000000	  11.3069000000	  40.8218000000
H	  41.2822000000	  12.5628000000	  39.6375000000
H	  43.0504000000	  13.8047000000	  42.9162000000
H	  42.0379000000	  12.8376000000	  43.8391000000
H	  43.5099000000	  11.2452000000	  40.2014000000
H	  43.6473000000	  13.0212000000	  40.5110000000
O	  45.0297000000	  12.2250000000	  44.1877000000
C	  46.9245000000	  12.2450000000	  45.6230000000
C	  45.9265000000	  13.2235000000	  46.1696000000
C	  46.4406000000	  11.9717000000	  44.1966000000
C	  44.8436000000	  13.2779000000	  45.1368000000
H	  46.7880000000	  11.3610000000	  46.1578000000
H	  48.0139000000	  12.4546000000	  45.6567000000
H	  45.4939000000	  12.9378000000	  47.1501000000
H	  46.3478000000	  14.2275000000	  46.2088000000
H	  46.8377000000	  12.7420000000	  43.5572000000
H	  46.6450000000	  11.0094000000	  43.6981000000
H	  43.8656000000	  13.1313000000	  45.3999000000
H	  44.8602000000	  14.2600000000	  44.6121000000
O	  44.0442000000	   9.1567700000	  42.6713000000
C	  44.2769000000	   7.2966000000	  41.2568000000
C	  42.8202000000	   7.4632700000	  41.5423000000
C	  44.9772000000	   8.0887200000	  42.4524000000
C	  42.7205000000	   8.8033200000	  42.2258000000
H	  44.6245000000	   7.8167500000	  40.2822000000
H	  44.6585000000	   6.2569500000	  41.3180000000
H	  42.1274000000	   7.3988700000	  40.5995000000
H	  42.5292000000	   6.6606300000	  42.2876000000
H	  44.9063000000	   7.4265400000	  43.3891000000
H	  45.9724000000	   8.3004100000	  42.1620000000
H	  42.5104000000	   9.5283900000	  41.4558000000
H	  41.9403000000	   8.9274700000	  43.0431000000
