35

Li	  17.8222000000	  47.5492000000	  11.8075000000
O	  15.4527000000	  46.1730000000	   8.8902000000
O	  16.5858000000	  46.7352000000	  10.6980000000
C	  14.5785000000	  46.0376000000	   9.9552000000
C	  15.2796000000	  46.6560000000	  11.0937000000
C	  16.5346000000	  46.8788000000	   9.3357700000
H	  13.6272000000	  46.5775000000	   9.6463100000
H	  14.5651000000	  44.9839000000	  10.1071000000
H	  14.8880000000	  47.6564000000	  11.2351000000
H	  15.1636000000	  46.0915000000	  12.0466000000
H	  17.4309000000	  46.6315000000	   8.7062500000
H	  16.3039000000	  47.9194000000	   9.0509500000
N	  17.8807000000	  50.5223000000	  10.2960000000
S	  19.2021000000	  49.6473000000	  10.1712000000
O	  20.3309000000	  50.4385000000	  10.5624000000
O	  19.1107000000	  48.2656000000	  10.6321000000
C	  19.3086000000	  49.4159000000	   8.3742200000
F	  18.1592000000	  49.1174000000	   7.8764500000
F	  20.1929000000	  48.5044000000	   7.9917200000
F	  19.5856000000	  50.5337000000	   7.6920300000
S	  16.5819000000	  50.2884000000	  11.1017000000
O	  16.7647000000	  49.3137000000	  12.1395000000
O	  15.4246000000	  50.1769000000	  10.2268000000
C	  16.4176000000	  51.8823000000	  12.0860000000
F	  15.8351000000	  51.6177000000	  13.2629000000
F	  17.5231000000	  52.5287000000	  12.3684000000
F	  15.6211000000	  52.8056000000	  11.6197000000
S	  25.7675000000	  54.1965000000	  15.9992000000
S	  25.9450000000	  52.2682000000	  16.9475000000
S	  25.7462000000	  50.6855000000	  15.5911000000
S	  21.7484000000	  47.3253000000	  14.3435000000
S	  19.6607000000	  47.3067000000	  14.8379000000
S	  18.2592000000	  46.4468000000	  13.4739000000
S	  22.6128000000	  49.3254000000	  14.2285000000
S	  23.8822000000	  49.5620000000	  15.8621000000
