28

Li	  27.0040000000	  32.4831000000	  51.5760000000
O	  30.3118000000	  32.8598000000	  49.5485000000
O	  28.4482000000	  33.1133000000	  50.7822000000
C	  30.6655000000	  33.5970000000	  50.7216000000
C	  29.5227000000	  33.4360000000	  51.6400000000
C	  28.9624000000	  33.1315000000	  49.4707000000
H	  31.6842000000	  33.3763000000	  51.2066000000
H	  30.7793000000	  34.6628000000	  50.4203000000
H	  29.7689000000	  32.5925000000	  52.3231000000
H	  29.2855000000	  34.3610000000	  52.1871000000
H	  28.6847000000	  34.1424000000	  49.1654000000
H	  28.3989000000	  32.4512000000	  48.8672000000
S	  26.4505000000	  30.5466000000	  50.8899000000
S	  28.2219000000	  30.3167000000	  51.9915000000
S	  27.9740000000	  28.9730000000	  53.5869000000
S	  27.6992000000	  24.1805000000	  54.7759000000
S	  27.7491000000	  22.6294000000	  56.2456000000
S	  28.0463000000	  20.7043000000	  55.4006000000
S	  29.0592000000	  25.8676000000	  54.9237000000
S	  28.9869000000	  27.1949000000	  53.2150000000
S	  32.8114000000	  40.9674000000	  56.6832000000
S	  31.5855000000	  39.7069000000	  55.4128000000
S	  32.5931000000	  37.9191000000	  55.1335000000
S	  28.7021000000	  35.1009000000	  55.3167000000
S	  27.5893000000	  33.3571000000	  54.6394000000
S	  26.3149000000	  33.7758000000	  53.0528000000
S	  30.8394000000	  35.0611000000	  55.3249000000
S	  31.5184000000	  36.4149000000	  54.0356000000
