39

Li	  26.8691000000	  24.0144000000	  51.4515000000
O	  25.5104000000	  22.3122000000	  52.1442000000
O	  23.7182000000	  21.4613000000	  53.2167000000
C	  25.9200000000	  21.2709000000	  52.9729000000
C	  24.8169000000	  21.2346000000	  54.0370000000
C	  24.2028000000	  21.9819000000	  52.0157000000
H	  26.0705000000	  20.3247000000	  52.3213000000
H	  26.8066000000	  21.5086000000	  53.5150000000
H	  24.7149000000	  20.2915000000	  54.4665000000
H	  24.8123000000	  22.0604000000	  54.7664000000
H	  23.6606000000	  22.7857000000	  51.5801000000
H	  24.0859000000	  21.1588000000	  51.2725000000
O	  30.3131000000	  21.6480000000	  50.9101000000
O	  28.4989000000	  22.9910000000	  51.2367000000
C	  29.1694000000	  20.8826000000	  50.5176000000
C	  28.2161000000	  22.0176000000	  50.1908000000
C	  29.7644000000	  22.7038000000	  51.6387000000
H	  29.3560000000	  20.2504000000	  49.6459000000
H	  28.8225000000	  20.2836000000	  51.3661000000
H	  28.3373000000	  22.4405000000	  49.1558000000
H	  27.1349000000	  21.6369000000	  50.2782000000
H	  29.6270000000	  22.4394000000	  52.6947000000
H	  30.3035000000	  23.6467000000	  51.7733000000
S	  27.0250000000	  25.0118000000	  53.3272000000
S	  24.8842000000	  25.2021000000	  53.5745000000
S	  24.3314000000	  26.8005000000	  54.9413000000
S	  20.4930000000	  23.9242000000	  56.0135000000
S	  20.4572000000	  23.0597000000	  53.9620000000
S	  19.7791000000	  21.0729000000	  53.8352000000
S	  21.0479000000	  25.9663000000	  55.8411000000
S	  23.0487000000	  26.1485000000	  56.4665000000
S	  18.0759000000	  26.5061000000	  50.0713000000
S	  19.2424000000	  25.0331000000	  51.2095000000
S	  19.2034000000	  23.0968000000	  50.3455000000
S	  23.1622000000	  23.6258000000	  47.9913000000
S	  24.8890000000	  23.1711000000	  49.0370000000
S	  25.7774000000	  24.9866000000	  49.7249000000
S	  21.8321000000	  21.9762000000	  48.3883000000
S	  21.1513000000	  22.2686000000	  50.3434000000
