35

Li	   4.1681200000	  12.4106000000	  35.9920000000
O	   5.1423400000	  10.9774000000	  36.5953000000
C	   5.9375800000	   8.8115700000	  37.6011000000
C	   5.9792500000	   8.7950400000	  36.0983000000
C	   5.3673500000	  10.2560000000	  37.8115000000
C	   6.0521300000	  10.3149000000	  35.7106000000
H	   6.9064400000	   8.7007300000	  38.1104000000
H	   5.4205700000	   8.0043100000	  38.0794000000
H	   6.8125200000	   8.1559900000	  35.8668000000
H	   5.1533500000	   8.2077600000	  35.6023000000
H	   4.4960200000	  10.1687000000	  38.4169000000
H	   6.1058900000	  10.8316000000	  38.4137000000
H	   7.0933600000	  10.6942000000	  35.8962000000
H	   5.7086900000	  10.5319000000	  34.6297000000
O	   3.0561900000	  13.4431000000	  36.9766000000
C	   2.6438600000	  15.1756000000	  38.3381000000
C	   1.8135000000	  15.3617000000	  37.1482000000
C	   2.7965600000	  13.7045000000	  38.3954000000
C	   2.4767800000	  14.4884000000	  36.1413000000
H	   2.2140200000	  15.4882000000	  39.2783000000
H	   3.6504300000	  15.6147000000	  38.1394000000
H	   0.8073260000	  15.1189000000	  37.3481000000
H	   1.9464000000	  16.3383000000	  36.7803000000
H	   3.5777000000	  13.2052000000	  38.9431000000
H	   1.8689100000	  13.2378000000	  38.7471000000
H	   1.7884800000	  14.0201000000	  35.3863000000
H	   3.2580200000	  15.0250000000	  35.6371000000
S	  12.9757000000	  17.2251000000	  36.2127000000
S	  11.5162000000	  16.2408000000	  37.3989000000
S	   9.5577200000	  16.8577000000	  36.7888000000
S	   6.2393200000	  13.8162000000	  36.8098000000
S	   6.5090100000	  13.5763000000	  34.7673000000
S	   4.5868400000	  13.1739000000	  33.9385000000
S	   6.2910000000	  15.8954000000	  37.1288000000
S	   8.0539000000	  16.4828000000	  38.1049000000
