31

Li	  48.2036000000	  33.8192000000	  12.8539000000
O	  47.4288000000	  34.5534000000	  14.5763000000
O	  47.5873000000	  34.3793000000	  16.6802000000
C	  46.1042000000	  34.4101000000	  14.9680000000
C	  46.1585000000	  34.2863000000	  16.4874000000
C	  48.1204000000	  35.0650000000	  15.6791000000
H	  45.5576000000	  35.2072000000	  14.5582000000
H	  45.8216000000	  33.4659000000	  14.5623000000
H	  45.7402000000	  35.1345000000	  17.0568000000
H	  45.8405000000	  33.3282000000	  16.9256000000
H	  49.2047000000	  35.1111000000	  15.7796000000
H	  47.7357000000	  35.9418000000	  16.1446000000
O	  47.2380000000	  30.3758000000	  14.2377000000
O	  48.2171000000	  31.8882000000	  12.8171000000
C	  46.7983000000	  29.9773000000	  12.9218000000
C	  47.2445000000	  31.1706000000	  12.1202000000
C	  48.4123000000	  31.0594000000	  13.9546000000
H	  47.3939000000	  29.1499000000	  12.6086000000
H	  45.8025000000	  29.5793000000	  12.7268000000
H	  47.6763000000	  30.8306000000	  11.1528000000
H	  46.3746000000	  31.8184000000	  11.9408000000
H	  48.6770000000	  31.7890000000	  14.7054000000
H	  49.2454000000	  30.4149000000	  13.7446000000
S	  46.6645000000	  34.8415000000	  11.6602000000
S	  45.6225000000	  33.6424000000	  10.2043000000
S	  46.6220000000	  33.7246000000	   8.3751700000
S	  50.6218000000	  32.3912000000	  10.3809000000
S	  50.7964000000	  34.2784000000	  11.2904000000
S	  50.4925000000	  34.3722000000	  13.3741000000
S	  49.9482000000	  32.4777000000	   8.4820100000
S	  47.9207000000	  31.9506000000	   8.1461000000
