49

Li	  19.1781000000	  46.2247000000	  52.7722000000
O	  18.9428000000	  47.5787000000	  54.1337000000
O	  19.2025000000	  48.5339000000	  56.1091000000
C	  17.8535000000	  48.5370000000	  54.1183000000
C	  18.1300000000	  49.2312000000	  55.3943000000
C	  19.8364000000	  47.8140000000	  55.1874000000
H	  17.9335000000	  49.2954000000	  53.3214000000
H	  16.8307000000	  48.1133000000	  54.1239000000
H	  18.5104000000	  50.2289000000	  55.1798000000
H	  17.2417000000	  49.3218000000	  55.9916000000
H	  20.1319000000	  46.9011000000	  55.5551000000
H	  20.6344000000	  48.4260000000	  54.7701000000
O	  20.3506000000	  47.2688000000	  51.8595000000
O	  21.9582000000	  48.5506000000	  52.6053000000
C	  21.5220000000	  46.5302000000	  51.4797000000
C	  22.6031000000	  47.3160000000	  52.3155000000
C	  20.8534000000	  48.5973000000	  51.8229000000
H	  21.6702000000	  45.4512000000	  51.5905000000
H	  21.7556000000	  46.6844000000	  50.4632000000
H	  22.9184000000	  46.8666000000	  53.2026000000
H	  23.5055000000	  47.4228000000	  51.7200000000
H	  21.0299000000	  48.8482000000	  50.7552000000
H	  20.1830000000	  49.3959000000	  52.2169000000
O	  19.4215000000	  44.5470000000	  53.8748000000
O	  18.7704000000	  43.7664000000	  55.8726000000
C	  20.1653000000	  43.3527000000	  54.0561000000
C	  19.5865000000	  42.7786000000	  55.4047000000
C	  18.3289000000	  44.4170000000	  54.7698000000
H	  20.0743000000	  42.6896000000	  53.2669000000
H	  21.1507000000	  43.6531000000	  54.1140000000
H	  19.0461000000	  41.8828000000	  55.2325000000
H	  20.3986000000	  42.4838000000	  56.1015000000
H	  17.6445000000	  45.2838000000	  54.9784000000
H	  17.6270000000	  43.8509000000	  54.1500000000
N	  17.7119000000	  42.7400000000	  50.0375000000
S	  17.2246000000	  41.7128000000	  51.0795000000
O	  17.3596000000	  40.3732000000	  50.5132000000
O	  17.5857000000	  42.0036000000	  52.4623000000
C	  15.4306000000	  42.1608000000	  50.8785000000
F	  15.1481000000	  43.4431000000	  51.1096000000
F	  14.6307000000	  41.5444000000	  51.7349000000
F	  14.9739000000	  41.9785000000	  49.6520000000
S	  18.9168000000	  43.7169000000	  50.2861000000
O	  20.1386000000	  43.0741000000	  50.6699000000
O	  18.6685000000	  44.9807000000	  51.0248000000
C	  19.2976000000	  44.2771000000	  48.6036000000
F	  19.3868000000	  43.2846000000	  47.7443000000
F	  18.3994000000	  45.1311000000	  48.0782000000
F	  20.5058000000	  44.8826000000	  48.5901000000
