22

Li	  16.8731000000	  37.7325000000	  46.6520000000
O	  17.6960000000	  36.7143000000	  48.1368000000
C	  18.9328000000	  35.1387000000	  49.4264000000
C	  19.9551000000	  36.1897000000	  49.0895000000
C	  17.5530000000	  35.8612000000	  49.2397000000
C	  19.0748000000	  37.1525000000	  48.3167000000
H	  19.1731000000	  34.6555000000	  50.3769000000
H	  18.9280000000	  34.3558000000	  48.6367000000
H	  20.3310000000	  36.7242000000	  50.0036000000
H	  20.7787000000	  35.8828000000	  48.4439000000
H	  16.7511000000	  35.1599000000	  49.0821000000
H	  17.2319000000	  36.5197000000	  50.0055000000
H	  18.8832000000	  38.0610000000	  48.8713000000
H	  19.5513000000	  37.4182000000	  47.4250000000
S	  15.4485000000	  38.9772000000	  47.4293000000
S	  14.1152000000	  37.3179000000	  47.5755000000
S	  13.0557000000	  37.2003000000	  49.4074000000
S	  13.1055000000	  36.3015000000	  54.0752000000
S	  13.6544000000	  34.7963000000	  55.4168000000
S	  14.2975000000	  35.7226000000	  57.1984000000
S	  14.5549000000	  36.8458000000	  52.6907000000
S	  14.3368000000	  35.9758000000	  50.7418000000
