31

Li	   5.2183700000	  22.7118000000	  56.3150000000
O	   5.1086800000	  23.9244000000	  60.0845217876
O	   5.0381000000	  22.9390000000	  58.1638000000
C	   5.4209700000	  22.5432000000	  60.4240317876
C	   5.4046400000	  21.9404000000	  59.0659000000
C	   4.4558400000	  23.9286000000	  58.8819000000
H	   6.3912200000	  22.6412000000	  60.8295017876
H	   4.7397300000	  22.1432000000	  61.1589817876
H	   6.4008000000	  21.5257000000	  58.7960000000
H	   4.7168300000	  21.0350000000	  59.0688000000
H	   3.4182400000	  23.6285000000	  58.8954000000
H	   4.6598500000	  24.8520000000	  58.3392000000
O	   5.8435600000	  24.7520000000	  53.5710000000
O	   5.8544000000	  24.3784000000	  55.7717000000
C	   7.0817900000	  24.0857000000	  53.7753000000
C	   7.2112200000	  24.3046000000	  55.2656000000
C	   5.3469100000	  25.1394000000	  54.7976000000
H	   7.1897900000	  22.9908000000	  53.6359000000
H	   7.7973600000	  24.6534000000	  53.1613000000
H	   7.8653900000	  23.4382000000	  55.6175000000
H	   7.7631300000	  25.2584000000	  55.4851000000
H	   5.5544700000	  26.1923000000	  54.9637000000
H	   4.2627700000	  25.0353000000	  54.8170000000
S	  12.1937000000	  21.3033000000	  60.2125817876
S	  10.0969000000	  20.7605000000	  60.2577717876
S	   9.7025400000	  18.9784000000	  59.1750000000
S	   6.5849600000	  20.8233000000	  55.8267000000
S	   4.6271900000	  20.6158000000	  55.1219000000
S	   3.4426800000	  22.3193000000	  55.3882000000
S	   7.5366000000	  19.0011000000	  56.3092000000
S	   9.5126600000	  19.4968000000	  57.1487000000
