46

Li	  14.2243000000	  33.1480000000	  56.8356000000
O	  16.1340000000	  33.0777000000	  56.6708000000
O	  18.2194000000	  33.6741000000	  56.0147000000
C	  16.8567000000	  31.8450000000	  56.4771000000
C	  18.3012000000	  32.3394000000	  56.2568000000
C	  17.0207000000	  34.1053000000	  56.5246000000
H	  16.8230000000	  31.2167000000	  57.3793000000
H	  16.5728000000	  31.2617000000	  55.6471000000
H	  18.8187000000	  32.2480000000	  57.1957000000
H	  18.8364000000	  31.8142000000	  55.4219000000
H	  16.6550000000	  34.9477000000	  56.0323000000
H	  17.1307000000	  34.4131000000	  57.5850000000
O	  13.5609000000	  37.0159000000	  57.6605000000
O	  13.7521000000	  35.0282000000	  56.6659000000
C	  12.5306000000	  36.9792000000	  56.7330000000
C	  12.9211000000	  35.7958000000	  55.8712000000
C	  13.7500000000	  35.6677000000	  57.9099000000
H	  11.5853000000	  36.7820000000	  57.3163000000
H	  12.3828000000	  37.9193000000	  56.1361000000
H	  12.0124000000	  35.1761000000	  55.6549000000
H	  13.3379000000	  36.1393000000	  54.9062000000
H	  14.6956000000	  35.3527000000	  58.4363000000
H	  12.8969000000	  35.2832000000	  58.5504000000
N	  14.6457000000	  31.7662000000	  52.7819000000
S	  14.3857000000	  33.1432000000	  53.3808000000
O	  14.3084000000	  33.0196000000	  54.8116000000
O	  15.0217000000	  34.2270000000	  52.7487000000
C	  12.6569000000	  33.3019000000	  52.8743000000
F	  12.0665000000	  34.3749000000	  53.2904000000
F	  11.9178000000	  32.2659000000	  53.2728000000
F	  12.5215000000	  33.2594000000	  51.5320000000
S	  15.5159000000	  31.3703000000	  51.5422000000
O	  16.2406000000	  32.4569000000	  50.8343000000
O	  14.8430000000	  30.4084000000	  50.6888000000
C	  16.8997000000	  30.3462000000	  52.2823000000
F	  17.8779000000	  30.1668000000	  51.3827000000
F	  17.4805000000	  31.0754000000	  53.2213000000
F	  16.5065000000	  29.1794000000	  52.8135000000
S	  10.1303000000	  39.8445000000	  57.2172000000
S	   9.7326100000	  39.4737000000	  59.2426737876
S	  10.3751000000	  37.5752000000	  59.8583817876
S	  10.7342000000	  33.1883000000	  58.3968000000
S	  12.1924000000	  32.3828000000	  57.0684000000
S	  13.9482000000	  31.8273000000	  58.3048000000
S	   9.6583300000	  34.8891000000	  57.6384000000
S	   9.0049800000	  35.9790000000	  59.3615727876
