35

Li	  39.6941000000	  15.6243000000	  56.6730000000
O	  39.8517000000	  15.5574000000	  54.8658000000
O	  40.6051000000	  14.9062000000	  52.8258000000
C	  39.8858000000	  16.6990000000	  54.0963000000
C	  40.5067000000	  16.2484000000	  52.7697000000
C	  40.6544000000	  14.5724000000	  54.1912000000
H	  38.9061000000	  17.1514000000	  54.0542000000
H	  40.4789000000	  17.4307000000	  54.6086000000
H	  39.9591000000	  16.5644000000	  51.8935000000
H	  41.5027000000	  16.6457000000	  52.6016000000
H	  41.6603000000	  14.7096000000	  54.5400000000
H	  40.3508000000	  13.5618000000	  54.5806000000
N	  39.4895000000	  12.2522000000	  58.9383000000
S	  39.5312000000	  10.9424000000	  59.8224917876
O	  38.3038000000	  10.1994000000	  59.6866517876
O	  40.7906000000	  10.2306000000	  59.6719417876
C	  39.4741000000	  11.6391000000	  61.5084417876
F	  38.8492000000	  10.8370000000	  62.4008617876
F	  38.7896000000	  12.7866000000	  61.5394117876
F	  40.7242000000	  11.8337000000	  61.8407617876
S	  38.8164000000	  12.4791000000	  57.5790000000
O	  38.6226000000	  11.3134000000	  56.7618000000
O	  39.3542000000	  13.6530000000	  56.9555000000
C	  37.0504000000	  13.0332000000	  58.0154000000
F	  36.4429000000	  12.2263000000	  58.8408000000
F	  37.2263000000	  14.2197000000	  58.6041000000
F	  36.2104000000	  13.2583000000	  56.9671000000
S	  42.0753000000	   7.7610900000	  54.7918000000
S	  42.3124000000	   9.1117400000	  56.4814000000
S	  41.6292000000	  11.0464000000	  55.8902000000
S	  42.4458000000	  15.6648000000	  57.0922000000
S	  41.2728000000	  16.4264000000	  58.6995000000
S	  39.5131000000	  17.2926000000	  57.8664000000
S	  43.2020000000	  13.7644000000	  57.5944000000
S	  43.0931000000	  12.5074000000	  55.8801000000
