35

Li	  52.7380000000	  24.6414000000	  34.6244000000
O	  53.7576000000	  23.3371000000	  35.4542000000
C	  54.7763000000	  21.3033000000	  35.7986000000
C	  55.7865000000	  22.3253000000	  36.3833000000
C	  53.4353000000	  22.0234000000	  35.9771000000
C	  55.0972000000	  23.6584000000	  35.9847000000
H	  54.8848000000	  20.3373000000	  36.2774000000
H	  54.8460000000	  21.2722000000	  34.7427000000
H	  55.8760000000	  22.2597000000	  37.4559000000
H	  56.6955000000	  22.2060000000	  35.8732000000
H	  52.6073000000	  21.4245000000	  35.5751000000
H	  53.2537000000	  22.1114000000	  37.0795000000
H	  54.9905000000	  24.3889000000	  36.7555000000
H	  55.6174000000	  24.2062000000	  35.2513000000
O	  53.8940000000	  25.8787000000	  33.8398000000
C	  54.5200000000	  27.3118000000	  32.1224000000
C	  54.2772000000	  25.8381000000	  31.5445000000
C	  54.3627000000	  27.1713000000	  33.5719000000
C	  54.3863000000	  25.0121000000	  32.8188000000
H	  53.7291000000	  27.9360000000	  31.7340000000
H	  55.4251000000	  27.8306000000	  31.6113000000
H	  53.2334000000	  25.7314000000	  31.1492000000
H	  55.0093000000	  25.5410000000	  30.7789000000
H	  55.2904000000	  27.2411000000	  33.9748000000
H	  53.6890000000	  28.0094000000	  33.8596000000
H	  53.7088000000	  24.1679000000	  32.6272000000
H	  55.4327000000	  24.7745000000	  33.0866000000
S	  48.6638000000	  30.0005000000	  42.5177000000
S	  48.9274000000	  30.6933000000	  40.5157000000
S	  50.8555000000	  29.9920000000	  40.0525000000
S	  51.8183000000	  26.2114000000	  36.9568000000
S	  50.8901000000	  24.5800000000	  35.8951000000
S	  50.8928000000	  24.8845000000	  33.8079000000
S	  50.3735000000	  27.6664000000	  37.5506000000
S	  51.1093000000	  29.5528000000	  37.9932000000
