53

Li	   1.4983700000	  21.9805000000	  44.8872000000
O	   5.4127200000	  21.8257000000	  44.6221000000
O	   3.2662900000	  21.5691000000	  45.2896000000
C	   5.5508300000	  21.6678000000	  46.0203000000
C	   4.1137600000	  21.4546000000	  46.4742000000
C	   4.1869500000	  21.2710000000	  44.3039000000
H	   6.1750000000	  20.7365000000	  46.0943000000
H	   5.9844000000	  22.6624000000	  46.3487000000
H	   4.0298900000	  20.4810000000	  46.9152000000
H	   3.7568100000	  22.0989000000	  47.2570000000
H	   3.7361500000	  21.6185000000	  43.3482000000
H	   4.3292600000	  20.1504000000	  44.2373000000
S	   0.9001443092	  20.7011000000	  41.9813000000
O	   2.4192900000	  20.9063000000	  41.1816000000
O	   0.5560443092	  19.0760000000	  42.1241000000
O	   1.0509443092	  21.4240000000	  43.3173000000
C	   2.8941100000	  19.8494000000	  40.3518000000
C	   1.0638443092	  18.5655000000	  43.3456000000
C	   4.0339800000	  20.4752000000	  39.4640000000
C	   0.8797443092	  17.0026000000	  43.4142000000
H	   3.3343200000	  19.0097000000	  41.0056000000
H	   2.1391600000	  19.2861000000	  39.8095000000
H	   2.1176100000	  18.7947000000	  43.4615000000
H	   0.6079443092	  18.9753000000	  44.2628000000
H	   4.8054600000	  21.0347000000	  40.0112000000
H	   4.5894800000	  19.8293000000	  38.8330000000
H	   3.6064900000	  21.2738000000	  38.8159000000
H	   1.5228700000	  16.3514000000	  42.8464000000
H	   0.9836443092	  16.6454000000	  44.4314000000
H	  -0.1820556908	  16.6971000000	  43.1281000000
N	   1.4824800000	  25.6543000000	  42.7034000000
S	   1.3994900000	  25.2863000000	  41.1876000000
O	   0.6682443092	  24.0640000000	  40.9583000000
O	   1.1919400000	  26.3996000000	  40.2910000000
C	   3.1166700000	  24.7892000000	  40.8726000000
F	   3.2711500000	  24.4647000000	  39.6353000000
F	   3.4232400000	  23.7671000000	  41.6081000000
F	   3.9535800000	  25.7863000000	  41.0641000000
S	   0.4631443092	  25.2305000000	  43.7776000000
O	   0.7558443092	  24.0232000000	  44.5286000000
O	  -0.9229556908	  25.3919000000	  43.4052000000
C	   0.7205443092	  26.5088000000	  45.0751000000
F	   1.9907800000	  26.6834000000	  45.4314000000
F	   0.2741443092	  27.7030000000	  44.5874000000
F	  -0.1036556908	  26.3342000000	  46.0594000000
S	   0.4780443092	  20.8315000000	  46.3585000000
S	   0.2044443092	  22.3058000000	  47.8938000000
S	   1.6609300000	  23.7447000000	  47.9306000000
S	   4.5290800000	  26.4615000000	  51.7505000000
S	   5.9070600000	  27.7161000000	  50.9253000000
S	   7.5740700000	  26.6870000000	  50.1241000000
S	   2.7815000000	  25.9906000000	  50.6283000000
S	   2.8078400000	  23.9792000000	  49.8205000000
