39

Li	  58.7995000000	  51.6815000000	  53.9078000000
O	  59.2652256908	  51.6774000000	  51.9990000000
O	  59.6176856908	  51.0867000000	  49.9244000000
C	  58.2344000000	  52.3060000000	  51.3489000000
C	  58.4873000000	  51.9601000000	  49.8199000000
C	  60.2254656908	  51.4408000000	  51.1052000000
H	  57.3169000000	  51.8812000000	  51.6995000000
H	  58.1016000000	  53.3876000000	  51.5505000000
H	  57.7248000000	  51.3035000000	  49.3779000000
H	  58.7242000000	  52.8203000000	  49.1955000000
H	  60.7824556908	  52.3309000000	  50.8589000000
H	  61.0105656908	  50.7110000000	  51.3650000000
O	  62.3102756908	  51.7719000000	  56.1469000000
O	  60.4786256908	  51.4001000000	  54.7068000000
C	  62.4480356908	  52.6397000000	  55.0830000000
C	  61.5184256908	  52.0478000000	  53.9805000000
C	  61.2298356908	  50.9083000000	  55.7811000000
H	  62.0634256908	  53.6224000000	  55.4548000000
H	  63.4019356908	  52.6721000000	  54.6447000000
H	  61.1976056908	  52.7992000000	  53.3156000000
H	  62.1203156908	  51.2849000000	  53.4661000000
H	  61.6973956908	  49.9644000000	  55.5038000000
H	  60.6075156908	  50.6932000000	  56.6797000000
S	  57.5766000000	  49.8931000000	  53.9169000000
S	  55.4715000000	  50.0492000000	  53.6905000000
S	  54.5515000000	  51.0575000000	  55.2291000000
S	  52.4079000000	  47.4723000000	  58.2989000000
S	  50.3383000000	  47.3601000000	  58.5159000000
S	  49.7631000000	  45.6853000000	  59.7828593784
S	  53.0140000000	  49.4987000000	  57.8562000000
S	  52.8607000000	  49.9387000000	  55.8762000000
S	  58.0561000000	  53.4901000000	  54.5777000000
S	  59.4975556908	  55.0387000000	  54.5492000000
S	  60.1331956908	  55.4438000000	  52.6361000000
S	  63.4900256908	  57.4156000000	  50.0601000000
S	  65.6352156908	  57.3959000000	  50.1088000000
S	  66.2381256908	  57.9610000000	  52.0372000000
S	  62.7212256908	  55.5243000000	  50.1954000000
S	  62.2372956908	  55.0561000000	  52.1861000000
