46

Li	  19.1051000000	  21.3677000000	  20.4888000000
O	  20.5948000000	  21.7122000000	  21.6920000000
O	  22.4765000000	  22.3324000000	  22.9545000000
C	  21.7409000000	  21.7869000000	  20.8603000000
C	  22.9626000000	  21.6708000000	  21.8146000000
C	  21.1371000000	  21.9899000000	  22.9560000000
H	  21.7971000000	  21.0668000000	  20.1019000000
H	  21.6832000000	  22.7988000000	  20.3904000000
H	  23.1658000000	  20.6155000000	  22.0420000000
H	  23.8684000000	  22.0880000000	  21.4598000000
H	  20.7375000000	  22.9838000000	  23.1408000000
H	  20.9991000000	  21.1191000000	  23.6248000000
O	  20.3231000000	  17.2607000000	  21.2554000000
O	  19.3496000000	  19.3499000000	  20.7198000000
C	  20.0061000000	  18.0168000000	  22.4284000000
C	  18.9593000000	  19.1239000000	  22.0610000000
C	  19.7278000000	  18.0568000000	  20.2652000000
H	  19.6444000000	  17.3739000000	  23.2664000000
H	  20.9479000000	  18.5193000000	  22.7663000000
H	  17.9846000000	  18.7826000000	  22.0132000000
H	  19.0127000000	  19.9899000000	  22.8112000000
H	  20.4253000000	  18.2250000000	  19.4271000000
H	  18.9116000000	  17.5198000000	  19.9003000000
N	  21.7016000000	  20.9306000000	  16.6777000000
S	  20.3172000000	  21.3985000000	  17.3101000000
O	  19.9482000000	  20.7410000000	  18.5257000000
O	  20.1758000000	  22.8423000000	  17.3198000000
C	  19.1686000000	  20.7751000000	  16.0800000000
F	  19.3619000000	  21.2821000000	  14.8724000000
F	  17.8741000000	  21.0906000000	  16.3104000000
F	  19.2314000000	  19.4939000000	  15.8112000000
S	  23.1329000000	  21.3804000000	  17.0425000000
O	  23.1016000000	  22.2415000000	  18.1933000000
O	  23.9844000000	  21.6335000000	  15.8995000000
C	  23.7366000000	  19.7588000000	  17.7279000000
F	  23.1143000000	  19.2963000000	  18.7934000000
F	  23.8682000000	  18.7688000000	  16.9084000000
F	  24.9320000000	  19.9227000000	  18.1166000000
S	  17.0778000000	  21.5621000000	  20.1444000000
S	  18.0460000000	  23.2955000000	  21.0017000000
S	  17.8078000000	  23.3069000000	  23.1012000000
S	  12.8637000000	  24.4559000000	  23.2293000000
S	  12.5976000000	  23.0136000000	  21.7163000000
S	  13.5293000000	  23.2917000000	  19.8393000000
S	  14.4754000000	  23.8784000000	  24.4460000000
S	  16.3442000000	  24.5827000000	  23.8888000000
