46

Li	  58.2214000000	  13.2890000000	  48.9329000000
O	  58.4825000000	  15.1001000000	  49.2343000000
O	  58.5529000000	  17.3388000000	  49.7187000000
C	  59.4583156908	  15.6416000000	  48.3697000000
C	  59.3246056908	  17.1514000000	  48.5497000000
C	  57.7139000000	  16.1895000000	  49.6504000000
H	  60.3703856908	  15.4785000000	  48.8769000000
H	  59.5338756908	  15.2720000000	  47.3610000000
H	  60.2656956908	  17.7549000000	  48.5280000000
H	  58.6231000000	  17.5644000000	  47.8212000000
H	  56.9797000000	  16.3589000000	  48.8934000000
H	  57.1746000000	  16.0086000000	  50.6368000000
S	  60.1881856908	  12.1481000000	  46.4347000000
O	  59.3369756908	  12.3609000000	  45.0152000000
O	  61.5616656908	  13.1049000000	  46.3246000000
O	  59.2845856908	  12.7540000000	  47.5093000000
C	  58.2185000000	  11.5586000000	  44.9506000000
C	  62.5827556908	  12.6319000000	  47.3072000000
C	  57.7135000000	  11.7323000000	  43.5314000000
C	  63.9803456908	  13.2054000000	  47.1430000000
H	  58.5543000000	  10.5607000000	  45.1232000000
H	  57.5088000000	  11.9436000000	  45.6584000000
H	  62.3141856908	  13.1145000000	  48.2553000000
H	  62.6716356908	  11.6385000000	  47.4549000000
H	  58.4362000000	  11.4821000000	  42.7195000000
H	  56.8533000000	  11.1550000000	  43.3414000000
H	  57.3774000000	  12.7569000000	  43.2884000000
H	  64.8050456908	  12.9439000000	  47.7420000000
H	  64.4675356908	  12.8006000000	  46.1926000000
H	  63.9163656908	  14.2776000000	  47.0885000000
S	  58.4283000000	  11.3755000000	  50.1428000000
S	  60.4432056908	  12.1397000000	  50.2252000000
S	  61.6285456908	  11.3634000000	  51.6935000000
S	  64.8935256908	  12.9015000000	  54.7044000000
S	  66.3636056908	  12.3750000000	  53.3434000000
S	  68.0236556908	  13.7367000000	  53.3883000000
S	  63.1623656908	  13.6763000000	  53.7078000000
S	  61.5098756908	  12.4233000000	  53.5243000000
S	  46.9848000000	  15.2614000000	  54.1961000000
S	  48.7446000000	  14.1974000000	  54.7421000000
S	  49.8182000000	  13.3244000000	  53.2182000000
S	  54.6672000000	  14.1609000000	  51.2013000000
S	  54.7332000000	  14.4727000000	  49.1869000000
S	  56.1877000000	  13.2348000000	  48.1909000000
S	  53.1187000000	  12.9436000000	  51.9061000000
S	  51.8244000000	  14.1183000000	  52.9429000000
