53

Li	  27.7459000000	   1.8475100000	  39.8065000000
S	  29.6482000000	   0.7650806216	  42.2009000000
O	  31.1821000000	  -0.0414193784	  42.1211000000
O	  30.0580000000	   2.4159900000	  42.6295000000
O	  29.0173000000	   0.7096806216	  40.8147000000
C	  31.1703000000	  -1.3718193784	  42.6464000000
C	  29.3906000000	   3.4793800000	  41.9900000000
C	  32.4262000000	  -2.1603193784	  42.2910000000
C	  29.8838000000	   4.7611600000	  42.6426000000
H	  31.0037000000	  -1.3724193784	  43.7340000000
H	  30.2839000000	  -1.8163193784	  42.3071000000
H	  29.5775000000	   3.3888600000	  40.8980000000
H	  28.3908000000	   3.2768500000	  42.1790000000
H	  32.4084000000	  -2.8560193784	  41.4988000000
H	  33.3104000000	  -1.5933193784	  41.9485000000
H	  32.7246000000	  -2.6929193784	  43.1854000000
H	  30.9102000000	   5.0597600000	  42.3849000000
H	  29.2430000000	   5.6232300000	  42.3266000000
H	  29.7765000000	   4.6620800000	  43.7324000000
S	  25.8369000000	   4.4682100000	  38.9052000000
O	  25.0113000000	   5.4048600000	  40.0112000000
O	  26.4277000000	   5.5279700000	  37.7531000000
O	  26.9375000000	   3.7608500000	  39.6389000000
C	  25.5024000000	   5.2870900000	  41.2777000000
C	  27.5975000000	   5.0463000000	  37.1034000000
C	  24.7404000000	   6.0451800000	  42.3758000000
C	  28.0140000000	   6.0440600000	  36.0106000000
H	  25.4300000000	   4.2181800000	  41.5385000000
H	  26.5445000000	   5.5765200000	  41.3431000000
H	  28.4194000000	   4.8992100000	  37.8075000000
H	  27.3743000000	   4.0261100000	  36.7023000000
H	  23.8513000000	   5.6235900000	  42.7280000000
H	  25.3816000000	   5.9841200000	  43.2183000000
H	  24.6691000000	   7.0998100000	  42.1339000000
H	  28.7539000000	   5.5069300000	  35.4024000000
H	  27.2271000000	   6.4751400000	  35.3190000000
H	  28.4770000000	   6.8426500000	  36.4854000000
S	  28.9479000000	   1.8703800000	  38.0455000000
S	  28.2915000000	   0.4786806216	  36.5029000000
S	  29.8241000000	  -0.6131193784	  35.5342000000
S	  33.3394000000	  -3.4074193784	  37.3318000000
S	  34.5982000000	  -3.7195193784	  39.0754000000
S	  36.1213000000	  -5.0101193784	  38.6559000000
S	  31.4040000000	  -2.6767193784	  37.9156000000
S	  30.0115000000	  -2.5166193784	  36.3195000000
S	  25.8690000000	   0.7000806216	  40.3357000000
S	  24.0353000000	   1.5247400000	  40.7757000000
S	  23.8476000000	   1.9434600000	  42.8897000000
S	  21.6447000000	  -2.0442193784	  42.8602000000
S	  23.2173000000	  -3.2524193784	  42.2454000000
S	  23.9812000000	  -2.4119193784	  40.4104000000
S	  22.2351000000	  -0.7694193784	  44.3566000000
S	  22.0950000000	   1.2517900000	  43.6883000000
