45

Li	  29.1303000000	  45.5934000000	  53.3068000000
O	  29.6812000000	  45.8710000000	  51.6027000000
O	  31.3853000000	  45.8117000000	  50.0867000000
C	  29.7726000000	  47.1274000000	  50.9681000000
C	  31.1747000000	  47.1179000000	  50.4132000000
C	  30.5395000000	  45.0825000000	  50.8462000000
H	  29.1109000000	  47.2321000000	  50.0477000000
H	  29.6053000000	  48.0575000000	  51.5465000000
H	  31.2172000000	  47.8546000000	  49.6223000000
H	  31.8133000000	  47.3563000000	  51.3022000000
H	  31.1813000000	  44.4368000000	  51.4177000000
H	  30.0090000000	  44.4376000000	  50.1533000000
S	  29.5212000000	  42.4051000000	  53.0399000000
O	  28.7349000000	  42.3700000000	  51.4859000000
O	  31.1340000000	  41.8242000000	  53.0496000000
O	  29.5416000000	  43.8688000000	  53.4382000000
C	  27.7687000000	  41.3158000000	  51.3854000000
C	  31.8200000000	  42.3461000000	  54.1394000000
C	  27.5112000000	  41.1775000000	  49.9165000000
C	  33.0970000000	  41.4933000000	  54.1265000000
H	  28.0798000000	  40.3690000000	  51.8366000000
H	  26.9058000000	  41.7696000000	  51.9350000000
H	  31.9327000000	  43.4450000000	  54.0559000000
H	  31.1424000000	  42.2378000000	  55.0074000000
H	  28.4234000000	  40.6800000000	  49.5665000000
H	  26.6432000000	  40.5806000000	  49.7659000000
H	  27.5123000000	  42.0966000000	  49.4490000000
H	  32.6977000000	  40.5017000000	  54.1367000000
H	  33.6478000000	  41.6714000000	  53.1457000000
H	  33.6593000000	  41.7144000000	  55.0355000000
N	  29.8077000000	  47.5252000000	  56.2637000000
S	  30.6225000000	  46.2074000000	  56.0343000000
O	  30.7229000000	  45.8811000000	  54.6363000000
O	  31.8465000000	  46.1942000000	  56.8137000000
C	  29.6971000000	  44.9339000000	  56.7402000000
F	  30.3484000000	  43.8154000000	  56.6144000000
F	  28.5150000000	  44.7543000000	  56.1230000000
F	  29.5605000000	  45.0784000000	  57.9839000000
S	  28.6608000000	  48.0473000000	  55.2944000000
O	  27.4974000000	  48.3393000000	  56.0976000000
O	  28.4251000000	  47.3714000000	  54.0390000000
C	  29.2663000000	  49.6776000000	  54.8791000000
F	  30.5354000000	  49.5881000000	  54.4775000000
F	  28.6106000000	  50.1604000000	  53.8419000000
F	  29.2698000000	  50.5156000000	  55.9332000000
