91

Li	  13.0296000000	  50.5366000000	  29.5326000000
S	  14.9328000000	  49.1936000000	  32.2948000000
O	  14.6301000000	  50.3848000000	  33.5369000000
O	  13.9552000000	  47.9058000000	  32.8244000000
O	  14.4100000000	  49.8266000000	  31.0776000000
C	  13.2865000000	  50.5790000000	  33.7853000000
C	  14.3712000000	  46.7234000000	  32.1139000000
C	  13.0331000000	  51.7194000000	  34.6415000000
C	  13.5490000000	  45.4568000000	  32.5315000000
H	  12.8393000000	  50.8163000000	  32.8901000000
H	  12.8400000000	  49.7185000000	  34.2328000000
H	  14.3939000000	  46.8789000000	  31.0656000000
H	  15.4229000000	  46.5547000000	  32.4682000000
H	  11.9921000000	  51.8903000000	  34.6767000000
H	  13.2077000000	  51.4572000000	  35.6804000000
H	  13.5465000000	  52.6547000000	  34.4061000000
H	  12.4811000000	  45.6265000000	  32.6825000000
H	  13.6407000000	  44.5818000000	  31.8699000000
H	  13.9320000000	  44.9713000000	  33.4145000000
S	  12.3896000000	  49.1489000000	  26.8787000000
O	  12.8972000000	  50.4034000000	  25.8572000000
O	  12.5886000000	  47.5860000000	  26.1265000000
O	  13.0965000000	  49.2037000000	  28.2157000000
C	  14.2815000000	  50.5123000000	  25.8692000000
C	  12.6654000000	  47.6349000000	  24.7290000000
C	  14.8183000000	  51.6676000000	  25.0356000000
C	  12.4172000000	  46.2464000000	  24.2067000000
H	  14.7666000000	  50.6588000000	  26.8367000000
H	  14.7533000000	  49.5717000000	  25.5730000000
H	  11.9280000000	  48.3074000000	  24.4567000000
H	  13.5537000000	  48.0573000000	  24.3722000000
H	  14.6017000000	  52.6502000000	  25.4689000000
H	  15.9140000000	  51.5630000000	  24.8023000000
H	  14.3102000000	  51.7314000000	  24.0890000000
H	  12.2465000000	  46.1716000000	  23.1764000000
H	  13.2973000000	  45.7009000000	  24.4580000000
H	  11.5486000000	  45.7420000000	  24.6635000000
S	  11.2354000000	  48.1082000000	  30.7769000000
O	   9.5949200000	  48.2719000000	  31.2574000000
O	  11.1495000000	  47.0675000000	  29.3965000000
O	  11.8176000000	  49.4847000000	  30.4697000000
C	   8.9096600000	  49.0343000000	  30.3246000000
C	  10.8802000000	  45.7418000000	  29.6762000000
C	   7.4301500000	  49.1613000000	  30.6268000000
C	  10.6073000000	  45.1681000000	  28.2595000000
H	   9.2811900000	  50.0625000000	  30.4249000000
H	   8.9885500000	  48.6033000000	  29.3117000000
H	  11.6792000000	  45.1607000000	  30.1624000000
H	   9.9911800000	  45.5973000000	  30.3093000000
H	   6.8835000000	  49.8384000000	  29.9717000000
H	   6.9105700000	  48.2240000000	  30.6811000000
H	   7.2316000000	  49.4468000000	  31.6522000000
H	  11.5602000000	  44.8846000000	  27.8349000000
H	  10.0710000000	  44.2452000000	  28.4154000000
H	   9.9583400000	  45.7463000000	  27.5387000000
S	  15.4946000000	  52.6823000000	  29.8369000000
O	  16.3343000000	  53.5689000000	  28.6829000000
O	  14.8201000000	  53.8078000000	  30.8819000000
O	  14.3496000000	  51.9609000000	  29.0940000000
C	  17.4462000000	  52.8903000000	  28.1179000000
C	  15.7578000000	  54.2464000000	  31.7977000000
C	  18.2840000000	  53.9658000000	  27.4330000000
C	  15.3947000000	  55.2986000000	  32.8407000000
H	  18.0774000000	  52.5024000000	  28.9461000000
H	  17.1332000000	  52.1529000000	  27.4207000000
H	  15.8686000000	  53.3909000000	  32.4109000000
H	  16.6157000000	  54.4756000000	  31.2007000000
H	  17.6556000000	  54.5106000000	  26.7463000000
H	  18.5291000000	  54.7173000000	  28.2081000000
H	  19.2195000000	  53.6642000000	  26.9698000000
H	  14.4951000000	  55.0546000000	  33.3854000000
H	  16.1121000000	  55.4737000000	  33.6517000000
H	  15.1241000000	  56.3080000000	  32.5529000000
S	  10.9111000000	  52.8406000000	  29.2008000000
O	   9.2953300000	  52.4949000000	  28.7213000000
O	  10.9208000000	  53.1522000000	  30.8849000000
O	  11.7755000000	  51.6010000000	  29.0031000000
C	   9.1430900000	  51.8294000000	  27.4627000000
C	  11.5956000000	  54.3076000000	  31.2495000000
C	   7.6398200000	  51.7306000000	  27.1021000000
C	  10.6783000000	  55.5483000000	  31.1389000000
H	   9.7481200000	  52.3495000000	  26.7041000000
H	   9.5936600000	  50.8249000000	  27.5967000000
H	  11.9668000000	  54.0358000000	  32.2532000000
H	  12.5299000000	  54.6189000000	  30.7009000000
H	   7.5097200000	  51.3422000000	  26.1086000000
H	   7.1728500000	  50.9697000000	  27.7856000000
H	   7.1546800000	  52.6819000000	  27.2100000000
H	  11.1768000000	  56.4398000000	  31.5232000000
H	  10.4095000000	  55.7580000000	  30.0794000000
H	   9.7232100000	  55.4860000000	  31.6842000000
