52

Li	  50.4257000000	  52.9998000000	   7.5840500000
O	  49.1921000000	  54.2815000000	   7.3986100000
O	  47.9574000000	  55.3961000000	   5.8601000000
C	  48.2395000000	  55.0337000000	   8.1141600000
C	  47.2177000000	  55.4631000000	   7.0601700000
C	  49.2189000000	  54.8889000000	   6.1382600000
H	  47.7754000000	  54.5487000000	   8.9378200000
H	  48.6363000000	  55.9712000000	   8.4401800000
H	  46.4641000000	  54.7240000000	   6.9348400000
H	  46.5661000000	  56.3379000000	   7.3256100000
H	  49.9167000000	  55.7076000000	   6.2418900000
H	  49.6608000000	  54.2199000000	   5.3271300000
O	  51.9283000000	  50.3027000000	   5.2534400000
O	  50.7039000000	  51.6667000000	   6.4315700000
C	  50.7025000000	  50.3134000000	   4.6465300000
C	  49.8604000000	  50.7872000000	   5.7595500000
C	  51.9898000000	  51.3104000000	   6.0961500000
H	  50.6021000000	  50.9492000000	   3.8364900000
H	  50.4167000000	  49.3866000000	   4.1614900000
H	  48.9612000000	  51.2454000000	   5.4159100000
H	  49.5568000000	  49.9420000000	   6.3815300000
H	  52.5626000000	  51.0975000000	   6.9272400000
H	  52.4641000000	  52.2425000000	   5.7486300000
O	  49.7692000000	  52.0091000000	   9.2433900000
O	  50.4348000000	  51.1449000000	  11.2738000000
C	  48.7565000000	  52.2739000000	  10.1857000000
C	  49.0066000000	  51.3124000000	  11.2912000000
C	  50.6104000000	  51.1143000000	   9.8689100000
H	  48.7290000000	  53.3083000000	  10.5437000000
H	  47.7402000000	  52.1950000000	   9.8052400000
H	  48.6306000000	  51.6614000000	  12.2083000000
H	  48.5211000000	  50.3458000000	  11.1114000000
H	  50.3448000000	  50.0753000000	   9.5853300000
H	  51.6384000000	  51.2155000000	   9.6050300000
S	  52.7604000000	  54.5732000000	   7.8918800000
O	  54.0753000000	  53.4641000000	   7.8479300000
O	  52.1111000000	  54.6239000000	   6.2548800000
O	  51.6788000000	  53.8808000000	   8.6946700000
C	  55.3464000000	  54.0698000000	   8.2241100000
C	  52.7910000000	  55.5204000000	   5.4357900000
C	  56.4831000000	  53.0389000000	   8.0702800000
C	  52.4066000000	  55.3160000000	   3.9920700000
H	  55.5826000000	  54.9577000000	   7.5959400000
H	  55.2788000000	  54.2811000000	   9.3338700000
H	  52.5091000000	  56.5369000000	   5.8336000000
H	  53.9289000000	  55.3446000000	   5.5880600000
H	  57.4590000000	  53.4145000000	   8.3357500000
H	  56.3771000000	  52.2552000000	   8.7865600000
H	  56.6509000000	  52.6278000000	   7.0544100000
H	  51.3726000000	  55.5072000000	   3.8735000000
H	  52.7225000000	  56.1706000000	   3.3533200000
H	  52.7281000000	  54.3749000000	   3.5609700000
