59

Li	  42.7403000000	  22.4320000000	  28.4147000000
O	  44.3374000000	  22.2492000000	  27.3618000000
O	  44.5822000000	  21.7344000000	  29.5588000000
C	  44.2123000000	  20.8428000000	  27.4049000000
C	  44.4061000000	  20.4572000000	  28.8673000000
C	  45.1163000000	  22.5483000000	  28.5182000000
H	  43.2083000000	  20.5972000000	  27.0225000000
H	  44.9993000000	  20.4144000000	  26.7633000000
H	  43.6567000000	  19.7730000000	  29.2278000000
H	  45.3537000000	  19.8809000000	  29.0742000000
H	  46.1474000000	  22.2422000000	  28.3388000000
H	  45.0749000000	  23.5103000000	  28.7912000000
O	  40.8100000000	  22.1933000000	  25.1598000000
O	  41.3972000000	  22.6888000000	  27.1966000000
C	  39.6994000000	  22.0018000000	  25.9449000000
C	  39.9739000000	  22.7111000000	  27.2229000000
C	  41.7220000000	  22.9845000000	  25.8928000000
H	  38.7716000000	  22.3645000000	  25.4957000000
H	  39.6842000000	  20.9077000000	  26.0949000000
H	  39.6377000000	  23.7959000000	  27.2831000000
H	  39.6537000000	  22.1881000000	  28.1885000000
H	  42.6711000000	  22.7757000000	  25.5268000000
H	  41.5413000000	  24.0635000000	  25.6531000000
S	  42.2261000000	  25.9991000000	  28.5118000000
O	  42.4628000000	  27.0050000000	  29.8992000000
O	  43.2392000000	  26.4859000000	  27.1753000000
O	  42.5595000000	  24.5555000000	  28.7887000000
C	  41.4964000000	  26.9954000000	  30.8897000000
C	  44.5769000000	  26.7813000000	  27.5514000000
C	  41.8260000000	  28.0448000000	  31.9477000000
C	  45.1483000000	  27.6821000000	  26.4155000000
H	  40.4785000000	  27.2190000000	  30.5806000000
H	  41.5059000000	  26.0120000000	  31.2791000000
H	  44.5445000000	  27.3366000000	  28.4503000000
H	  45.1906000000	  25.8882000000	  27.7603000000
H	  41.1788000000	  27.8931000000	  32.8535000000
H	  42.8496000000	  27.8148000000	  32.2821000000
H	  41.9048000000	  29.0342000000	  31.5170000000
H	  44.6800000000	  28.6324000000	  26.5713000000
H	  46.1925000000	  27.9584000000	  26.5372000000
H	  44.7517000000	  27.3660000000	  25.4109000000
S	  40.8641000000	  20.1695000000	  30.1202000000
O	  40.1304000000	  18.9617000000	  29.2355000000
O	  42.0022000000	  19.4543000000	  31.1608000000
O	  41.6355000000	  21.1131000000	  29.1722000000
C	  40.8126000000	  18.4300000000	  28.1483000000
C	  41.2594000000	  18.8390000000	  32.2502000000
C	  39.9446000000	  17.8134000000	  27.0399000000
C	  42.2033000000	  18.2846000000	  33.3657000000
H	  41.6057000000	  19.1351000000	  27.7029000000
H	  41.3211000000	  17.6209000000	  28.6233000000
H	  40.6222000000	  19.6048000000	  32.7640000000
H	  40.5292000000	  18.0831000000	  31.8152000000
H	  40.5536000000	  17.2363000000	  26.3179000000
H	  39.0972000000	  17.2013000000	  27.3624000000
H	  39.5119000000	  18.6907000000	  26.6449000000
H	  43.0176000000	  17.7219000000	  33.0126000000
H	  42.6410000000	  19.1015000000	  33.8806000000
H	  41.6524000000	  17.7005000000	  34.0514000000
