84

Li	  27.7685000000	  26.5559000000	  27.0985000000
O	  28.6655000000	  24.8353000000	  28.2679000000
O	  30.4775000000	  24.4168000000	  29.6591000000
C	  28.7476000000	  23.4286000000	  28.4631000000
C	  30.1178000000	  23.1818000000	  29.0582000000
C	  29.7024000000	  25.4275000000	  29.0128000000
H	  28.0145000000	  22.9838000000	  29.1087000000
H	  28.4733000000	  23.0222000000	  27.4721000000
H	  30.1797000000	  22.3569000000	  29.7296000000
H	  30.8726000000	  23.1493000000	  28.2842000000
H	  30.4271000000	  26.0428000000	  28.4292000000
H	  29.1881000000	  26.0026000000	  29.7838000000
S	  29.9040000000	  29.0372000000	  27.8111000000
O	  30.6384000000	  28.3094000000	  29.1473000000
O	  31.0548000000	  29.1244000000	  26.6096000000
O	  28.7068000000	  28.1167000000	  27.4725000000
C	  30.8342000000	  29.1124000000	  30.2848000000
C	  30.6311000000	  29.5673000000	  25.3377000000
C	  30.8332000000	  28.0239000000	  31.4242000000
C	  31.7374000000	  30.5586000000	  24.8476000000
H	  31.7322000000	  29.6509000000	  30.3041000000
H	  30.0613000000	  29.7986000000	  30.4652000000
H	  30.5075000000	  28.8118000000	  24.6057000000
H	  29.6410000000	  30.0154000000	  25.3631000000
H	  29.8851000000	  27.6386000000	  31.6734000000
H	  31.5158000000	  27.3178000000	  31.1368000000
H	  31.0510000000	  28.4356000000	  32.4046000000
H	  31.1818000000	  31.2261000000	  24.1662000000
H	  32.2029000000	  31.1627000000	  25.6138000000
H	  32.4852000000	  30.0352000000	  24.2671000000
S	  25.7089000000	  28.1084000000	  24.6536000000
O	  26.7670000000	  29.3217000000	  24.2182000000
O	  25.6580000000	  26.9433000000	  23.2567000000
O	  26.3598000000	  27.4315000000	  25.8703000000
C	  26.6413000000	  29.7448000000	  22.8262000000
C	  24.3458000000	  26.7366000000	  22.6379000000
C	  27.6720000000	  30.8363000000	  22.5322000000
C	  24.3550000000	  25.5810000000	  21.6263000000
H	  26.8094000000	  28.9149000000	  22.1536000000
H	  25.6197000000	  30.0372000000	  22.5691000000
H	  23.6365000000	  26.4769000000	  23.4041000000
H	  23.9800000000	  27.7206000000	  22.2596000000
H	  27.3899000000	  31.7590000000	  22.9487000000
H	  28.6555000000	  30.5430000000	  22.9638000000
H	  27.8231000000	  31.0180000000	  21.4721000000
H	  23.3118000000	  25.2094000000	  21.3962000000
H	  24.6887000000	  25.9700000000	  20.6624000000
H	  25.0070000000	  24.7896000000	  21.9294000000
S	  28.2813000000	  26.0117000000	  24.0673000000
O	  29.8783000000	  26.4273000000	  23.5519000000
O	  27.8079000000	  24.7452000000	  23.0704000000
O	  28.2720000000	  25.5861000000	  25.5532000000
C	  30.7956000000	  25.3966000000	  23.7655000000
C	  27.0775000000	  23.6806000000	  23.7665000000
C	  32.2057000000	  26.0621000000	  23.5084000000
C	  26.4915000000	  22.4872000000	  22.9257000000
H	  30.7257000000	  25.0275000000	  24.7217000000
H	  30.7072000000	  24.5939000000	  23.0971000000
H	  27.8646000000	  23.2715000000	  24.4174000000
H	  26.2339000000	  24.1396000000	  24.3317000000
H	  33.0126000000	  25.2755000000	  23.6471000000
H	  32.3053000000	  26.2732000000	  22.4719000000
H	  32.3949000000	  27.0500000000	  24.0054000000
H	  26.1551000000	  21.5901000000	  23.4804000000
H	  25.5781000000	  22.6806000000	  22.3347000000
H	  27.2335000000	  22.1561000000	  22.2900000000
S	  25.3616000000	  27.0191000000	  28.9457000000
O	  24.5067000000	  25.9083000000	  29.9798000000
O	  26.2804000000	  28.2377000000	  29.8136000000
O	  26.3502000000	  26.2301000000	  28.1584000000
C	  25.2314000000	  25.1136000000	  30.8056000000
C	  25.5932000000	  29.4943000000	  29.9729000000
C	  24.3075000000	  24.3331000000	  31.7159000000
C	  26.6892000000	  30.4726000000	  30.5908000000
H	  25.9044000000	  24.3760000000	  30.3048000000
H	  25.8339000000	  25.7729000000	  31.4494000000
H	  25.2767000000	  29.9195000000	  29.0434000000
H	  24.6311000000	  29.3864000000	  30.5494000000
H	  24.8409000000	  23.5290000000	  32.1308000000
H	  23.8354000000	  24.8729000000	  32.5267000000
H	  23.6040000000	  23.7072000000	  31.2127000000
H	  26.4978000000	  31.5152000000	  30.6873000000
H	  26.8384000000	  30.0700000000	  31.6062000000
H	  27.6322000000	  30.3643000000	  30.0572000000
