56

Li	  54.2432000000	   7.5960300000	  39.0879000000
O	  54.5213000000	   8.3895500000	  37.3667000000
O	  53.4802000000	   9.6618400000	  35.8350000000
C	  55.1673000000	   8.2590600000	  36.1297000000
C	  53.9989000000	   8.5040000000	  35.1900000000
C	  53.8421000000	   9.5841700000	  37.1790000000
H	  56.0486000000	   8.8658300000	  36.0427000000
H	  55.5047000000	   7.2721500000	  35.9406000000
H	  54.2693000000	   8.5689800000	  34.2013000000
H	  53.3872000000	   7.5914600000	  35.3176000000
H	  52.9134000000	   9.5348400000	  37.7652000000
H	  54.4634000000	  10.3809000000	  37.6286000000
S	  55.1232000000	   9.9572700000	  41.2749000000
O	  56.2785000000	   8.7974900000	  41.8874000000
O	  55.9038000000	  11.4757000000	  40.9151000000
O	  54.4922000000	   9.3021600000	  39.9965000000
C	  57.3557000000	   9.3972900000	  42.6406000000
C	  55.1321000000	  12.3482000000	  40.0920000000
C	  58.2008000000	   8.4349600000	  43.4732000000
C	  55.9044000000	  13.5981000000	  39.6725000000
H	  58.0797000000	   9.9795800000	  42.0547000000
H	  56.9513000000	  10.2142000000	  43.2816000000
H	  54.9372000000	  11.7925000000	  39.1363000000
H	  54.2534000000	  12.6933000000	  40.5941000000
H	  59.0616356908	   8.8969800000	  43.8563000000
H	  57.6919000000	   8.0682700000	  44.3362000000
H	  58.5730000000	   7.6562000000	  42.8634000000
H	  56.2493000000	  14.0248000000	  40.6000000000
H	  56.8556000000	  13.4184000000	  39.2337000000
H	  55.3419000000	  14.3170000000	  39.1126000000
S	  57.4174000000	   6.7963200000	  39.9799000000
O	  58.1940000000	   5.5267500000	  39.1868000000
O	  58.2510000000	   8.2479500000	  39.5044000000
O	  56.0061000000	   6.9632200000	  39.3433000000
C	  57.8967000000	   5.3388200000	  37.8191000000
C	  57.7197000000	   8.9710500000	  38.4322000000
C	  58.5967000000	   4.0874600000	  37.3433000000
C	  58.6184000000	  10.2455000000	  38.4519000000
H	  56.8709000000	   5.2491200000	  37.8072000000
H	  58.0914000000	   6.1084000000	  37.1284000000
H	  57.8476000000	   8.4348200000	  37.4391000000
H	  56.6771000000	   9.2540500000	  38.4605000000
H	  58.4469000000	   3.9470700000	  36.2686000000
H	  59.6420256908	   4.2169200000	  37.5838000000
H	  58.2238000000	   3.1749200000	  37.7841000000
H	  59.6411356908	  10.0580000000	  38.1106000000
H	  58.1900000000	  10.8881000000	  37.6300000000
H	  58.6699000000	  10.9004000000	  39.3168000000
S	  52.7273000000	   6.4929700000	  40.3968000000
S	  52.5932000000	   6.3251100000	  38.3387000000
S	  54.0054000000	   5.0453100000	  37.4593000000
S	  52.2653000000	   3.1297300000	  33.6055000000
S	  52.6329000000	   4.9401100000	  32.7358000000
S	  50.9004000000	   6.0289400000	  32.2937000000
S	  53.6725000000	   2.6877300000	  35.0710000000
S	  53.0771000000	   3.2959800000	  37.0273000000
