70

Li	  58.1983000000	  41.2948000000	  29.4137000000
S	  58.9120556908	  39.1666000000	  27.0437000000
O	  57.6171000000	  38.1107000000	  27.2789000000
O	  58.6951000000	  39.8485000000	  25.4965000000
O	  58.8133000000	  40.2995000000	  28.0670000000
C	  57.7093000000	  36.9487000000	  26.5476000000
C	  57.6391000000	  40.8022000000	  25.4228000000
C	  56.4480000000	  36.0934000000	  26.7247000000
C	  57.9456000000	  41.8540000000	  24.3462000000
H	  57.9311000000	  37.1344000000	  25.5027000000
H	  58.5852000000	  36.4097000000	  26.9739000000
H	  56.7721000000	  40.1719000000	  25.3079000000
H	  57.4577000000	  41.2313000000	  26.3869000000
H	  56.3637000000	  35.8117000000	  27.7651000000
H	  55.5363000000	  36.5496000000	  26.4484000000
H	  56.5513000000	  35.0931000000	  26.3582000000
H	  57.2698000000	  42.6538000000	  24.3801000000
H	  58.9675256908	  42.0853000000	  24.4997000000
H	  57.7716000000	  41.3649000000	  23.3912000000
S	  57.9722000000	  42.7759000000	  32.0628000000
O	  58.9958856908	  44.0370000000	  32.7503000000
O	  58.7646000000	  41.5371000000	  31.1391000000
O	  57.0319000000	  42.2756000000	  33.1570000000
C	  58.5567000000	  45.3411000000	  32.4311000000
C	  59.9807056908	  41.0904000000	  31.7848000000
C	  59.4246056908	  46.3259000000	  33.2599000000
C	  60.6375856908	  39.8794000000	  30.9925000000
H	  58.6678000000	  45.5356000000	  31.3051000000
H	  57.5542000000	  45.4768000000	  32.7969000000
H	  60.6292456908	  41.9556000000	  31.8618000000
H	  59.8430156908	  40.8617000000	  32.8424000000
H	  59.5111956908	  45.9378000000	  34.2521000000
H	  60.4545656908	  46.5618000000	  32.8885000000
H	  58.8578000000	  47.2343000000	  33.2293000000
H	  60.0469656908	  38.9676000000	  31.2109000000
H	  60.6194956908	  40.1420000000	  29.9194000000
H	  61.5759556908	  39.6767000000	  31.3416000000
S	  60.0455156908	  43.3522000000	  27.6860000000
O	  60.5444856908	  44.9398000000	  28.0325000000
O	  61.3812756908	  42.3638000000	  27.3778000000
O	  59.1662056908	  42.7556000000	  28.8064000000
C	  61.1158256908	  45.0362000000	  29.3518000000
C	  62.5930356908	  42.9196000000	  26.8401000000
C	  61.3653956908	  46.4811000000	  29.5977000000
C	  63.4501156908	  41.9154000000	  26.0681000000
H	  60.3160956908	  44.6572000000	  30.0191000000
H	  61.9751256908	  44.4163000000	  29.3787000000
H	  62.2656956908	  43.6913000000	  26.0918000000
H	  63.2115656908	  43.3507000000	  27.6583000000
H	  60.4507856908	  47.0822000000	  29.2635000000
H	  61.6732556908	  46.7891000000	  30.5895000000
H	  62.2981456908	  46.7624000000	  29.0594000000
H	  63.8008856908	  41.0911000000	  26.7381000000
H	  62.8032056908	  41.4527000000	  25.3433000000
H	  64.3848456908	  42.2388000000	  25.6592000000
N	  54.2661000000	  42.9752000000	  28.5340000000
S	  52.9218000000	  43.1386000000	  29.3090000000
O	  52.1198000000	  41.9545000000	  29.6408000000
O	  52.9000000000	  44.2343000000	  30.1938000000
C	  51.9753000000	  43.8274000000	  27.9853000000
F	  51.9300000000	  43.0131000000	  26.9634000000
F	  52.4246000000	  45.0085000000	  27.5172000000
F	  50.7280000000	  43.9955000000	  28.3817000000
S	  55.7109000000	  43.2922000000	  29.0040000000
O	  56.6126000000	  42.1858000000	  28.6714000000
O	  55.8361000000	  43.9568000000	  30.2723000000
C	  56.2594000000	  44.5152000000	  27.7299000000
F	  57.3513000000	  45.1719000000	  28.0961000000
F	  56.3765000000	  43.8834000000	  26.5232000000
F	  55.3837000000	  45.4818000000	  27.3654000000
