46

Li	  29.8117000000	  58.4706000000	  46.7220000000
O	  30.4965000000	  60.2089793784	  47.2232000000
O	  30.4162000000	  62.4267493784	  47.0203000000
C	  31.2486000000	  60.7570393784	  48.2975000000
C	  30.9734000000	  62.2576493784	  48.2613000000
C	  30.5139000000	  61.2085093784	  46.2908000000
H	  30.9313000000	  60.2822593784	  49.2765000000
H	  32.3451000000	  60.5278893784	  48.1116000000
H	  30.3515000000	  62.6513293784	  49.0885000000
H	  31.8251000000	  62.9175793784	  48.1749000000
H	  31.5354000000	  61.3128993784	  45.9383000000
H	  29.7745000000	  61.1244793784	  45.4380000000
S	  29.4843000000	  56.3487000000	  48.9962000000
O	  30.7114000000	  55.3589000000	  48.3794000000
O	  29.5121000000	  56.4082000000	  50.6676000000
O	  29.6945000000	  57.7528000000	  48.4265000000
C	  32.0342000000	  55.6833000000	  48.7875000000
C	  30.0906000000	  57.6257000000	  51.2008000000
C	  33.1491000000	  54.7770000000	  48.1228000000
C	  30.3822000000	  57.2850000000	  52.7221000000
H	  32.1302000000	  56.6976000000	  48.6080000000
H	  32.0371000000	  55.6731000000	  49.8922000000
H	  31.0342000000	  57.7385000000	  50.6526000000
H	  29.4357000000	  58.5263000000	  51.0863000000
H	  34.1229000000	  55.0356000000	  48.3777000000
H	  32.9271000000	  53.7113000000	  48.2058000000
H	  33.0151000000	  55.0082000000	  47.0249000000
H	  29.4032000000	  57.3913000000	  53.3205000000
H	  30.7556000000	  56.2927000000	  52.7259000000
H	  31.1972000000	  57.8638000000	  53.0245000000
S	  31.3028000000	  57.6617000000	  45.6861000000
S	  32.9991000000	  58.8844000000	  45.6895000000
S	  33.7151000000	  59.6016793784	  43.8580000000
S	  32.5366000000	  62.4094993784	  40.5035000000
S	  30.9103000000	  63.2256293784	  39.3362000000
S	  31.4653000000	  63.3977393784	  37.2245000000
S	  32.0396000000	  62.3700193784	  42.5519000000
S	  33.5534000000	  61.7276093784	  43.7868000000
S	  27.7468000000	  58.7314000000	  46.0759000000
S	  27.5610000000	  56.6432000000	  46.0438000000
S	  28.4918000000	  55.7058000000	  44.2499000000
S	  27.7276000000	  57.1008000000	  39.7034000000
S	  26.5860000000	  56.2608000000	  38.1575000000
S	  27.7098000000	  56.2041000000	  36.3421000000
S	  26.5559000000	  57.1432000000	  41.4828000000
S	  26.9640000000	  55.4982000000	  42.7730000000
