20

Li	   2.4314800000	  10.7407000000	  56.4232000000
O	  -0.0530556908	  11.2185000000	  59.5877193784
O	   0.8822443092	  11.4513000000	  57.5943000000
C	  -1.1914556908	  11.2940000000	  58.6757000000
C	  -0.5363556908	  11.5466000000	  57.3872000000
C	   1.0678443092	  10.9331000000	  58.8575000000
H	  -1.7322556908	  10.3614000000	  58.6500000000
H	  -2.0042556908	  12.0604000000	  58.7940000000
H	  -0.8934556908	  10.9776000000	  56.5428000000
H	  -0.6225556908	  12.6094000000	  57.2618000000
H	   1.9861400000	  11.2810000000	  59.3362693784
H	   1.1155900000	   9.8422300000	  58.7127000000
S	   1.5624500000	   8.9782900000	  55.9351000000
S	   3.6031300000	   8.8888300000	  56.2547000000
S	   4.8604400000	   8.9271400000	  54.6006000000
S	   9.0892400000	   7.6384400000	  52.4426000000
S	   9.5040300000	   9.6563900000	  52.0013000000
S	  11.6281000000	   9.8149800000	  51.6103000000
S	   8.2107600000	   7.5276000000	  54.3585000000
S	   6.1496400000	   7.2162200000	  54.5646000000
