27

Li	  27.5012000000	  24.3496000000	  16.3552000000
S	  25.9628000000	  21.8075000000	  17.9107000000
O	  25.7491000000	  21.8570000000	  19.6290000000
O	  24.3317000000	  21.7999000000	  17.1905000000
O	  26.6939000000	  23.0674000000	  17.4406000000
C	  26.3508000000	  20.7423000000	  20.2422000000
C	  24.0149000000	  20.5478000000	  16.5869000000
C	  25.9151000000	  20.5868000000	  21.7198000000
C	  22.6691000000	  20.7210000000	  15.8173000000
H	  26.1717000000	  19.8267000000	  19.6569000000
H	  27.4122000000	  20.8921000000	  20.2336000000
H	  24.8218000000	  20.3829000000	  15.8694000000
H	  23.9685000000	  19.8286000000	  17.4086000000
H	  25.0023000000	  20.0722000000	  21.8320000000
H	  26.6341000000	  20.0812000000	  22.3224000000
H	  25.7430000000	  21.4994000000	  22.1724000000
H	  22.7489000000	  21.6459000000	  15.2145000000
H	  22.5551000000	  19.8835000000	  15.1085000000
H	  21.8545000000	  20.7562000000	  16.5189000000
S	  26.0109000000	  25.2608000000	  15.2897000000
S	  25.4028000000	  23.5493000000	  14.2216000000
S	  26.8921000000	  22.5891000000	  12.9389000000
S	  29.4864000000	  21.9637000000	  16.5588000000
S	  30.5678000000	  23.7371000000	  16.8623000000
S	  29.2997000000	  25.4061000000	  16.6880000000
S	  29.6805000000	  21.0986000000	  14.6943000000
S	  27.7612000000	  20.8400000000	  13.7476000000
