56

Li	  12.1034000000	  29.9719000000	  16.8727000000
O	  10.3454000000	  29.6221000000	  16.9791000000
O	   8.8339200000	  28.7140000000	  15.5717000000
C	  10.0494000000	  28.3493000000	  17.5538000000
C	   9.1496100000	  27.6687000000	  16.4547000000
C	   9.1526600000	  29.8367000000	  16.2501000000
H	  10.9679000000	  27.8532000000	  17.8712000000
H	   9.4833800000	  28.4920000000	  18.4471000000
H	   9.5348900000	  26.8186000000	  15.9021000000
H	   8.2726400000	  27.3357000000	  16.9157000000
H	   8.3591800000	  30.2379000000	  16.9143000000
H	   9.3872200000	  30.5575000000	  15.4441000000
O	  11.2920000000	  32.0944000000	  20.1449000000
O	  12.4000000000	  31.3033000000	  18.3109000000
C	  10.6246000000	  32.6099000000	  18.9942000000
C	  11.6506000000	  32.4590000000	  17.8840000000
C	  12.5132000000	  31.6492000000	  19.6633000000
H	   9.7669500000	  31.9362000000	  18.8727000000
H	  10.4258000000	  33.6988000000	  19.1227000000
H	  11.1204000000	  32.2025000000	  16.9712000000
H	  12.3295000000	  33.2575000000	  17.6431000000
H	  13.1687000000	  32.5144000000	  19.5866000000
H	  12.7969000000	  30.8361000000	  20.2909000000
S	  13.1297000000	  30.9880000000	  13.7779000000
O	  14.1276000000	  29.7454000000	  13.2197000000
O	  11.6869000000	  30.8921000000	  12.8433000000
O	  12.6671000000	  30.6443000000	  15.1990000000
C	  13.7182000000	  28.4388000000	  13.4344000000
C	  11.8194000000	  31.4276000000	  11.5543000000
C	  14.9797000000	  27.4963000000	  13.2925000000
C	  10.6562000000	  31.0290000000	  10.6694000000
H	  13.4174000000	  28.3669000000	  14.4961000000
H	  12.9020000000	  28.1967000000	  12.8128000000
H	  11.9274000000	  32.4991000000	  11.6008000000
H	  12.6890000000	  30.9993000000	  11.0660000000
H	  15.1759000000	  27.4621000000	  12.2014000000
H	  15.8966000000	  27.7445000000	  13.8858000000
H	  14.8356000000	  26.4508000000	  13.5072000000
H	  10.5953000000	  29.9710000000	  10.5339000000
H	   9.7439400000	  31.4615000000	  11.0956000000
H	  10.8363000000	  31.4504000000	   9.6683000000
N	  15.1449000000	  30.2994000000	  18.0336000000
S	  16.4964000000	  31.1175000000	  17.6456000000
O	  16.8740000000	  32.1305000000	  18.6145000000
O	  17.4640000000	  30.2137000000	  17.1311000000
C	  15.8219000000	  32.0715000000	  16.3205000000
F	  16.6006000000	  33.0814000000	  16.0106000000
F	  14.5851000000	  32.5049000000	  16.5550000000
F	  15.6858000000	  31.4223000000	  15.2214000000
S	  14.8017000000	  28.8057000000	  17.7378000000
O	  15.5139000000	  28.2371000000	  16.5911000000
O	  13.3564000000	  28.6276000000	  17.7532000000
C	  15.4580000000	  27.8794000000	  19.1544000000
F	  16.7542000000	  28.1068000000	  19.1240000000
F	  15.0555000000	  28.1769000000	  20.3342000000
F	  15.2263000000	  26.5592000000	  18.9965000000
