63

Li	  21.5797000000	  45.5952000000	  22.8806000000
O	  24.4202000000	  45.2855000000	  24.6496000000
O	  22.8427000000	  44.3969000000	  23.3449000000
C	  23.8454000000	  44.2895000000	  25.4119000000
C	  22.5425000000	  43.9037000000	  24.6450000000
C	  24.1001000000	  44.8825000000	  23.3542000000
H	  24.5006000000	  43.4304000000	  25.4027000000
H	  23.7291000000	  44.6030000000	  26.4572000000
H	  22.3337000000	  42.8347000000	  24.6409000000
H	  21.7366000000	  44.3528000000	  25.2143000000
H	  24.1610000000	  45.8596000000	  22.8489000000
H	  24.8667000000	  44.1650000000	  23.1391000000
S	  18.5570000000	  45.9714000000	  22.1544000000
O	  17.8804000000	  46.0504000000	  20.5917000000
O	  19.7834000000	  44.7754000000	  22.1328000000
O	  19.2767000000	  47.2754000000	  22.4093000000
C	  17.0627000000	  47.1463000000	  20.3579000000
C	  19.2922000000	  43.5236000000	  21.6288000000
C	  17.0537000000	  47.3670000000	  18.8420000000
C	  20.1794000000	  42.4749000000	  22.2316000000
H	  16.0776000000	  46.9723000000	  20.7651000000
H	  17.5124000000	  48.0226000000	  20.8129000000
H	  18.2289000000	  43.4123000000	  21.9017000000
H	  19.3642000000	  43.4901000000	  20.5573000000
H	  16.4309000000	  46.6611000000	  18.3501000000
H	  16.6455000000	  48.3047000000	  18.6236000000
H	  18.0239000000	  47.3397000000	  18.4035000000
H	  21.1929000000	  42.8069000000	  22.2266000000
H	  19.9887000000	  42.3468000000	  23.2716000000
H	  20.2122000000	  41.5407000000	  21.6588000000
S	  22.0401000000	  47.6620000000	  20.6847000000
O	  20.8255000000	  47.4952000000	  19.5181000000
O	  21.5344000000	  48.9210000000	  21.8444000000
O	  22.2577000000	  46.2892000000	  21.3837000000
C	  21.1716000000	  46.6541000000	  18.3730000000
C	  22.2556000000	  50.0726000000	  21.6380000000
C	  20.3974000000	  45.3310000000	  18.6157000000
C	  21.6638000000	  51.2010000000	  22.4206000000
H	  20.9330000000	  47.1069000000	  17.4831000000
H	  22.2105000000	  46.4687000000	  18.3553000000
H	  23.3160000000	  49.9393000000	  21.7615000000
H	  22.1263000000	  50.3244000000	  20.6488000000
H	  19.3974000000	  45.6451000000	  18.3400000000
H	  20.9707000000	  44.5923000000	  18.0451000000
H	  20.4824000000	  44.9999000000	  19.6637000000
H	  22.2207000000	  52.0463000000	  22.1610000000
H	  20.6355000000	  51.4266000000	  22.1912000000
H	  21.7075000000	  51.1656000000	  23.4918000000
N	  20.0077000000	  47.4668000000	  26.3831000000
S	  18.4938000000	  47.0447000000	  26.4017000000
O	  17.7520000000	  47.5701000000	  27.5517000000
O	  17.8319000000	  47.1736000000	  25.1372000000
C	  18.5819000000	  45.2396000000	  26.5288000000
F	  19.3855000000	  44.8657000000	  27.5222000000
F	  18.9831000000	  44.6695000000	  25.4416000000
F	  17.3997000000	  44.7209000000	  26.7493000000
S	  20.8425000000	  47.8673000000	  25.1504000000
O	  20.3858000000	  49.0690000000	  24.4578000000
O	  21.3405000000	  46.8073000000	  24.3300000000
C	  22.3112000000	  48.6165000000	  25.9243000000
F	  21.9200000000	  49.7149000000	  26.6322000000
F	  22.9236000000	  47.7533000000	  26.7947000000
F	  23.1648000000	  49.0481000000	  25.0241000000
