35

Li	  56.1933000000	  12.2003000000	  27.9798000000
S	  58.9375656908	  10.6648000000	  29.1440000000
O	  59.0579356908	  11.2648000000	  30.7860000000
O	  59.0533856908	   8.9701800000	  29.2800000000
O	  57.5773000000	  11.0762000000	  28.6267000000
C	  58.6976000000	  10.2933000000	  31.8087000000
C	  59.4835056908	   8.4246700000	  28.1101000000
C	  58.4079000000	  11.0621000000	  33.0943000000
C	  59.1421156908	   6.9122600000	  28.2121000000
H	  57.7267000000	   9.8699500000	  31.7499000000
H	  59.4338256908	   9.5154200000	  31.9219000000
H	  59.0765656908	   8.8034900000	  27.2158000000
H	  60.5657156908	   8.5750500000	  27.9969000000
H	  57.9263000000	  10.3425000000	  33.7369000000
H	  59.4287956908	  11.4181000000	  33.3723000000
H	  57.6666000000	  11.8865000000	  33.1053000000
H	  58.2234000000	   6.7691300000	  28.7764000000
H	  59.1039956908	   6.5297500000	  27.2883000000
H	  59.9554556908	   6.3851300000	  28.6916000000
S	  54.0788000000	  20.0732000000	  26.3594000000
S	  53.5153000000	  20.2889000000	  24.2974000000
S	  54.8799000000	  19.3828000000	  22.9981000000
S	  55.0161000000	  14.5606000000	  24.5357000000
S	  56.2694000000	  12.8504000000	  24.6580000000
S	  57.5135000000	  13.0030000000	  26.3802000000
S	  55.7442000000	  16.0738000000	  23.2706000000
S	  54.2379000000	  17.3864000000	  22.6594000000
S	  54.5133000000	  10.9001000000	  27.4707000000
S	  53.9009000000	  12.5465000000	  28.7758000000
S	  55.5410000000	  13.3154000000	  29.9155000000
S	  55.8237000000	  18.6430000000	  29.4504000000
S	  54.4034000000	  19.6333000000	  30.6953000000
S	  52.5801000000	  19.6708000000	  29.6728000000
S	  56.5982000000	  16.7747000000	  30.1934000000
S	  56.0681000000	  15.1376000000	  28.9803000000
