55

Li	  21.1350000000	  27.9935000000	  40.9794000000
S	  22.2381000000	  31.0440000000	  41.0546000000
O	  23.8336000000	  30.6050000000	  41.5398000000
O	  22.2370000000	  31.8467000000	  39.5820000000
O	  21.4021000000	  29.7493000000	  41.0646000000
C	  24.5056000000	  31.7625000000	  42.1614000000
C	  21.1350000000	  32.7750000000	  39.4938000000
C	  25.8806000000	  31.3808000000	  42.5771000000
C	  21.1520000000	  33.5664000000	  38.2117000000
H	  24.6334000000	  32.5817000000	  41.4156000000
H	  23.9130000000	  32.0717000000	  42.9751000000
H	  20.2483000000	  32.2118000000	  39.5220000000
H	  21.2066000000	  33.5171000000	  40.3504000000
H	  26.5767000000	  30.9446000000	  41.7877000000
H	  26.3598000000	  32.1759000000	  43.0047000000
H	  25.7169000000	  30.6168000000	  43.4334000000
H	  20.4001000000	  34.3851000000	  38.2847000000
H	  22.1312000000	  33.9995000000	  38.1517000000
H	  21.0233000000	  32.9356000000	  37.3406000000
S	  18.2495000000	  27.5010000000	  39.5277000000
O	  17.2130000000	  27.9496000000	  40.8171000000
O	  18.0040000000	  28.6655000000	  38.2484000000
O	  19.6683000000	  27.4974000000	  40.0265000000
C	  17.4500000000	  27.2945000000	  42.0063000000
C	  18.0442000000	  29.9466000000	  38.8275000000
C	  16.5750000000	  27.9689000000	  43.1226000000
C	  18.0149000000	  30.9880000000	  37.6838000000
H	  17.0635000000	  26.2702000000	  41.9345000000
H	  18.5627000000	  27.3600000000	  42.2406000000
H	  17.1652000000	  30.1637000000	  39.4409000000
H	  18.8527000000	  30.2163000000	  39.5897000000
H	  16.7122000000	  27.5829000000	  44.1475000000
H	  16.9204000000	  28.9581000000	  43.3737000000
H	  15.6128000000	  28.0378000000	  42.7468000000
H	  17.2865000000	  30.7643000000	  36.8900000000
H	  17.7937000000	  31.9600000000	  38.0808000000
H	  19.0535000000	  31.0848000000	  37.1842000000
S	  21.7433000000	  26.9305000000	  43.9168000000
O	  23.0730000000	  27.7742000000	  44.5626000000
O	  20.2648000000	  27.5928000000	  44.5244000000
O	  21.7712000000	  27.2071000000	  42.4176000000
C	  22.8754000000	  29.1644000000	  44.6973000000
C	  20.0189000000	  27.2841000000	  45.8338000000
C	  24.0366000000	  29.6654000000	  45.5847000000
C	  19.2265000000	  25.9411000000	  45.7301000000
H	  22.9456000000	  29.6039000000	  43.6898000000
H	  21.9370000000	  29.5201000000	  45.0846000000
H	  20.9163000000	  27.2088000000	  46.4049000000
H	  19.4431000000	  28.0826000000	  46.2749000000
H	  24.9772000000	  29.2082000000	  45.2143000000
H	  24.2221000000	  30.7644000000	  45.3871000000
H	  23.7332000000	  29.4631000000	  46.6660000000
H	  19.7589000000	  25.2052000000	  45.2242000000
H	  18.9802000000	  25.5560000000	  46.7384000000
H	  18.2869000000	  26.1388000000	  45.2081000000
