52

Li	  41.8100000000	  58.6640000000	  58.6636000000
S	  41.4668000000	  55.8345000000	  56.8983000000
O	  40.8239000000	  55.0806000000	  58.1978000000
O	  40.1253000000	  56.0775000000	  55.8501000000
O	  42.0000000000	  57.2538000000	  57.3305000000
C	  41.3944000000	  53.8231000000	  58.4971000000
C	  39.7603000000	  57.4277000000	  55.7329000000
C	  40.4859000000	  53.1400000000	  59.5300493784
C	  38.3783000000	  57.4844000000	  55.1772000000
H	  41.4406000000	  53.0889000000	  57.6421000000
H	  42.3730000000	  53.9992000000	  58.9222193784
H	  39.8018000000	  57.7808000000	  56.7521000000
H	  40.6029000000	  57.8370000000	  55.1166000000
H	  39.4497000000	  52.9153000000	  59.1550293784
H	  40.8926000000	  52.2405000000	  60.0414693784
H	  40.2742000000	  53.8563000000	  60.3445593784
H	  38.3029000000	  56.8384000000	  54.2961000000
H	  37.5871000000	  57.1245000000	  55.8155000000
H	  38.0862000000	  58.4776000000	  54.8605000000
S	  44.1203000000	  57.3788000000	  60.6580693784
O	  44.5649000000	  58.3990000000	  61.9442793784
O	  43.5364000000	  55.8879000000	  61.2761893784
O	  42.9993000000	  58.0863000000	  59.9105593784
C	  45.4979000000	  59.4564793784	  61.7978693784
C	  42.1963000000	  55.9191000000	  61.7773293784
C	  45.6718000000	  60.0625593784	  63.1985593784
C	  42.0673000000	  54.5720000000	  62.5256293784
H	  46.4475000000	  59.0962993784	  61.3251893784
H	  45.0063000000	  60.2544093784	  61.2444693784
H	  41.8870000000	  56.7384000000	  62.4423193784
H	  41.4961000000	  55.8811000000	  60.9805693784
H	  46.3150000000	  59.4529393784	  63.8903193784
H	  46.1598000000	  61.0586293784	  63.1225793784
H	  44.7000000000	  60.2061993784	  63.7055093784
H	  42.7821000000	  54.5203000000	  63.3670593784
H	  41.0310000000	  54.3939000000	  62.8783793784
H	  42.3031000000	  53.7344000000	  61.8770293784
N	  40.7098000000	  62.1729893784	  58.9755693784
S	  39.7192000000	  61.0097393784	  59.3545893784
O	  40.3394000000	  59.6773293784	  59.3549493784
O	  38.8261000000	  61.3989793784	  60.4294293784
C	  38.5974000000	  61.0623093784	  57.9325000000
F	  37.7627000000	  62.1014993784	  57.7907000000
F	  37.8465000000	  59.9416993784	  57.9140000000
F	  39.3749000000	  61.0485793784	  56.8677000000
S	  42.1463000000	  61.8850793784	  58.4598000000
O	  42.5092000000	  62.7921693784	  57.4199000000
O	  42.6007000000	  60.5097493784	  58.4099000000
C	  43.0468000000	  62.6422193784	  59.8290893784
F	  42.8196000000	  62.0306093784	  60.9948293784
F	  44.3259000000	  62.4285793784	  59.6329993784
F	  42.9873000000	  63.9748593784	  59.9212793784
