31

Li	  48.7550000000	  13.0819000000	  53.4874000000
O	  50.6508000000	  12.9272000000	  52.9566000000
O	  52.6667000000	  13.9268000000	  52.8446000000
C	  51.3464000000	  12.5126000000	  51.7611000000
C	  52.8082000000	  12.7040000000	  52.1798000000
C	  51.5696000000	  13.6880000000	  53.6544000000
H	  51.1255000000	  11.4709000000	  51.5171000000
H	  51.1923000000	  13.1445000000	  50.8980000000
H	  53.0820000000	  11.9296000000	  52.8448000000
H	  53.5163000000	  12.8147000000	  51.3376000000
H	  51.1854000000	  14.6162000000	  53.9184000000
H	  51.9727000000	  13.2307000000	  54.5313000000
O	  48.0124000000	  11.3301000000	  53.4048000000
O	  48.0192000000	   9.0917500000	  53.4555000000
C	  46.7271000000	  10.9931000000	  53.8832000000
C	  46.7949000000	   9.4720800000	  54.0204000000
C	  48.6778000000	  10.2135000000	  53.0174000000
H	  46.3640000000	  11.4193000000	  54.8714000000
H	  45.9817000000	  11.1743000000	  53.1007000000
H	  46.8585000000	   9.3154600000	  55.1428000000
H	  46.0385000000	   8.8047300000	  53.5849000000
H	  48.8308000000	  10.1506000000	  51.9395000000
H	  49.6985000000	  10.3705000000	  53.3712000000
S	  48.7523000000	  13.9747000000	  55.3535000000
S	  48.9262000000	  12.5468000000	  56.9247000000
S	  50.2265000000	  10.9007000000	  56.5924000000
S	  54.5551000000	  12.9185000000	  55.7034000000
S	  56.6913000000	  12.9520000000	  56.0475000000
S	  57.3728000000	  13.6264000000	  57.9424000000
S	  53.7907000000	  10.9419000000	  56.1410000000
S	  52.1317000000	  11.1146000000	  57.4099000000
