84

Li	  15.5956000000	  35.5222000000	  52.4158000000
O	  15.6652000000	  33.8108000000	  53.3063000000
O	  15.3514000000	  33.0254000000	  55.4753000000
C	  16.7306000000	  32.9526000000	  53.8022000000
C	  16.1911000000	  32.0680000000	  54.8925000000
C	  14.7934000000	  33.7913000000	  54.4018000000
H	  17.0364000000	  32.1998000000	  53.0465000000
H	  17.6446000000	  33.5527000000	  54.0287000000
H	  15.5619000000	  31.2893000000	  54.4882000000
H	  16.8968000000	  31.6296000000	  55.6088000000
H	  14.6127000000	  34.7382000000	  54.7340000000
H	  13.9152000000	  33.2660000000	  54.1311000000
S	  18.8790000000	  36.2578000000	  52.3921000000
O	  19.6117000000	  34.7367000000	  52.1525000000
O	  19.1602000000	  37.2432000000	  51.0157000000
O	  17.4041000000	  36.1426000000	  52.6721000000
C	  20.5551000000	  34.4331000000	  53.1426000000
C	  18.5697000000	  38.5420000000	  51.1088000000
C	  21.0303000000	  32.9991000000	  52.9516000000
C	  18.7796000000	  39.1422000000	  49.6808000000
H	  21.3809000000	  35.1912000000	  53.1343000000
H	  20.0303000000	  34.4215000000	  54.1170000000
H	  17.5059000000	  38.4712000000	  51.3994000000
H	  19.1150000000	  39.1167000000	  51.8367000000
H	  21.6397000000	  32.7788000000	  52.0609000000
H	  21.6937000000	  32.7947000000	  53.7878000000
H	  20.2104000000	  32.2509000000	  53.0861000000
H	  19.7870000000	  38.8964000000	  49.2832000000
H	  17.9716000000	  38.6833000000	  49.1159000000
H	  18.6613000000	  40.1562000000	  49.6527000000
S	  16.3333000000	  36.0797000000	  49.3590000000
O	  16.4038000000	  34.9181000000	  48.0980000000
O	  15.3567000000	  37.4221000000	  48.8873000000
O	  15.8109000000	  35.3916000000	  50.6656000000
C	  16.8275000000	  33.5921000000	  48.4154000000
C	  15.2537000000	  37.4729000000	  47.5403000000
C	  16.9304000000	  32.7345000000	  47.2031000000
C	  14.0619000000	  38.4012000000	  47.2494000000
H	  17.8267000000	  33.6865000000	  48.8332000000
H	  16.1901000000	  33.0691000000	  49.0890000000
H	  16.1997000000	  37.8067000000	  47.0746000000
H	  15.0763000000	  36.4645000000	  47.1192000000
H	  17.1180000000	  31.7795000000	  47.5798000000
H	  16.0044000000	  32.7410000000	  46.6599000000
H	  17.8158000000	  33.0510000000	  46.5404000000
H	  14.3080000000	  39.4076000000	  47.5636000000
H	  13.8667000000	  38.3705000000	  46.1888000000
H	  13.0853000000	  37.9589000000	  47.6453000000
S	  12.0501000000	  35.2324000000	  52.0325000000
O	  11.8477000000	  33.8028000000	  51.0301000000
O	  11.4245000000	  34.7398000000	  53.5502000000
O	  13.5420000000	  35.4382000000	  52.2319000000
C	  12.8122000000	  33.7110000000	  50.0291000000
C	  10.6341000000	  35.6481000000	  54.1706000000
C	  12.5635000000	  32.8402000000	  48.8832000000
C	  10.1744000000	  34.9640000000	  55.4994000000
H	  12.7766000000	  34.6972000000	  49.5176000000
H	  13.7199000000	  33.4423000000	  50.5711000000
H	  11.2055000000	  36.6099000000	  54.2820000000
H	   9.7589900000	  35.8544000000	  53.6144000000
H	  12.4281000000	  31.7725000000	  49.1845000000
H	  11.7118000000	  33.2204000000	  48.3942000000
H	  13.5118000000	  32.8175000000	  48.2969000000
H	  10.6504000000	  35.5603000000	  56.3073000000
H	   9.0999700000	  35.0093000000	  55.6349000000
H	  10.5306000000	  33.9460000000	  55.5879000000
S	  15.7015000000	  42.0269000000	  51.5007000000
O	  15.1712000000	  42.2151000000	  49.8642000000
O	  15.9305000000	  40.3631000000	  51.8663000000
O	  17.0439000000	  42.7231000000	  51.7285000000
C	  16.1712000000	  41.9755000000	  48.8575000000
C	  14.8530000000	  39.8122000000	  52.5423000000
C	  15.4719000000	  42.2772000000	  47.4753000000
C	  15.2282000000	  38.3338000000	  52.9586000000
H	  17.0653000000	  42.5804000000	  49.0573000000
H	  16.3552000000	  40.8913000000	  48.8614000000
H	  14.5616000000	  40.3173000000	  53.4065000000
H	  13.9221000000	  39.8769000000	  51.9489000000
H	  15.1598000000	  43.2575000000	  47.3446000000
H	  16.1516000000	  42.0527000000	  46.6635000000
H	  14.5751000000	  41.6601000000	  47.4126000000
H	  15.2279000000	  37.5413000000	  52.1700000000
H	  16.2579000000	  38.5029000000	  53.3014000000
H	  14.6438000000	  37.9265000000	  53.8264000000
