59

Li	  18.7965000000	  43.9872000000	  28.6753000000
O	  17.2005000000	  43.0767000000	  28.3399000000
O	  15.3631000000	  43.8657000000	  27.2342000000
C	  16.8010000000	  42.0872000000	  27.4579000000
C	  15.8360000000	  42.8159000000	  26.4808000000
C	  16.0135000000	  43.7659000000	  28.4867000000
H	  17.6759000000	  41.6355000000	  26.8939000000
H	  16.2960000000	  41.2949000000	  27.9780000000
H	  16.4467000000	  43.2336000000	  25.7152000000
H	  15.2371000000	  42.0946000000	  26.0027000000
H	  15.3003000000	  43.4044000000	  29.3021000000
H	  16.3164000000	  44.7635000000	  28.9317000000
O	  20.4946000000	  41.8337000000	  30.3895000000
O	  20.0379000000	  42.6210000000	  28.3351000000
C	  21.5754000000	  42.7230000000	  30.1468000000
C	  21.1830000000	  43.2966000000	  28.7612000000
C	  19.8923000000	  41.5219000000	  29.1444000000
H	  21.6651000000	  43.3808000000	  31.0391000000
H	  22.5613000000	  42.1846000000	  30.1840000000
H	  21.0119000000	  44.3701000000	  28.8903000000
H	  22.0841000000	  43.1045000000	  28.1957000000
H	  20.3656000000	  40.6296000000	  28.6911000000
H	  18.8260000000	  41.4175000000	  29.4290000000
S	  18.7147000000	  45.5909000000	  31.2125000000
O	  18.9747000000	  46.8657000000	  30.0647000000
O	  17.1796000000	  45.7874000000	  31.8965000000
O	  18.7171000000	  44.2914000000	  30.3945000000
C	  20.1693000000	  47.5705000000	  30.2649000000
C	  17.2577000000	  45.9282000000	  33.3426000000
C	  20.0452000000	  48.6731000000	  29.2536000000
C	  17.3619000000	  47.4355000000	  33.6867000000
H	  20.2305000000	  47.7348000000	  31.2898000000
H	  21.0403000000	  46.9245000000	  30.0284000000
H	  16.3547000000	  45.5460000000	  33.8452000000
H	  18.0067000000	  45.2467000000	  33.6639000000
H	  19.7401000000	  49.6285000000	  29.6217000000
H	  20.9971000000	  49.0363000000	  28.9523000000
H	  19.5565000000	  48.3669000000	  28.3713000000
H	  16.5745000000	  48.0229000000	  33.2592000000
H	  17.1697000000	  47.4863000000	  34.7123000000
H	  18.2915000000	  47.9666000000	  33.6219000000
S	  19.5269000000	  45.1403000000	  26.0502000000
O	  19.1321000000	  43.5815000000	  25.5307000000
O	  18.6697000000	  46.4035000000	  25.0961000000
O	  19.1885000000	  45.2742000000	  27.5384000000
C	  18.8593000000	  43.3650000000	  24.1623000000
C	  17.3083000000	  46.6359000000	  25.5473000000
C	  18.5871000000	  41.8848000000	  23.9033000000
C	  16.5980000000	  47.4995000000	  24.4906000000
H	  18.0227000000	  44.0109000000	  23.7892000000
H	  19.7612000000	  43.5477000000	  23.5474000000
H	  16.6606000000	  45.7594000000	  25.7368000000
H	  17.2292000000	  47.3034000000	  26.4724000000
H	  19.3554000000	  41.3151000000	  24.4705000000
H	  17.6814000000	  41.5044000000	  24.3499000000
H	  18.5598000000	  41.5664000000	  22.8097000000
H	  17.0830000000	  48.4627000000	  24.4178000000
H	  16.3067000000	  47.0397000000	  23.5441000000
H	  15.5919000000	  47.5735000000	  24.8243000000
