23

Li	   4.3516800000	  10.1162000000	  54.0926000000
O	   5.5538900000	   6.5679700000	  52.6132000000
O	   5.1281100000	   8.2935400000	  53.8968000000
C	   4.5174800000	   6.1926400000	  53.4513000000
C	   4.1835200000	   7.3655400000	  54.2934000000
C	   6.1323700000	   7.6158500000	  53.3048000000
H	   3.6648500000	   5.9782500000	  52.8431000000
H	   4.6770900000	   5.2104300000	  53.9689000000
H	   3.2028000000	   7.8082000000	  54.1834000000
H	   4.2891900000	   7.1874900000	  55.3737000000
H	   6.9822000000	   7.3956500000	  53.9953000000
H	   6.6278500000	   8.2332500000	  52.5156000000
O	   2.5011100000	  10.4064000000	  57.8201000000
O	   3.6962000000	   9.8591500000	  56.0152000000
C	   3.8742300000	  10.6844000000	  58.1495000000
C	   4.6102700000	  10.4816000000	  56.8829000000
C	   2.6137400000	   9.4709500000	  56.7836000000
H	   4.0607100000	  11.6996000000	  58.4776000000
H	   4.3026400000	   9.9583100000	  58.8305000000
H	   4.8467400000	  11.4598000000	  56.5024000000
H	   5.5748300000	  10.0422000000	  56.9476000000
H	   2.8316200000	   8.4785100000	  57.1872000000
H	   1.6946800000	   9.3868300000	  56.1529000000
