67

Li	  15.0781000000	  51.4328000000	  15.0112000000
O	  15.7019000000	  50.0093000000	  16.0268000000
O	  16.3713000000	  48.0282000000	  16.8833000000
C	  16.0947000000	  50.2842000000	  17.3624000000
C	  16.3442000000	  48.8709000000	  17.9833000000
C	  16.4440000000	  48.7909000000	  15.7327000000
H	  17.0509000000	  50.8340000000	  17.3679000000
H	  15.3668000000	  50.9174000000	  17.9213000000
H	  17.2868000000	  48.8828000000	  18.4586000000
H	  15.5493000000	  48.7169000000	  18.7484000000
H	  16.0768000000	  48.2451000000	  14.8206000000
H	  17.4535000000	  48.9832000000	  15.6491000000
O	  11.3559000000	  49.4655000000	  16.2602000000
O	  13.2138000000	  50.4632000000	  15.2417000000
C	  12.2358000000	  48.4741000000	  15.8532000000
C	  12.9653000000	  49.1825000000	  14.6486000000
C	  12.2755000000	  50.5019000000	  16.2854000000
H	  13.0180000000	  48.3620000000	  16.6595000000
H	  11.7930000000	  47.5364000000	  15.6733000000
H	  13.9140000000	  48.6751000000	  14.4847000000
H	  12.3663000000	  49.2760000000	  13.6617000000
H	  11.6839000000	  51.4877000000	  16.2800000000
H	  12.8586000000	  50.5479000000	  17.1220000000
O	  14.9902000000	  51.4498000000	  13.2456000000
O	  16.2333000000	  52.1785000000	  11.4855000000
C	  14.1819000000	  52.3101000000	  12.3853000000
C	  15.0947000000	  52.9628000000	  11.3579000000
C	  16.0920000000	  51.1789000000	  12.3205000000
H	  13.4095000000	  51.7820000000	  11.9267000000
H	  13.6313000000	  53.0449000000	  13.0124000000
H	  14.7040000000	  53.0903000000	  10.3665000000
H	  15.3798000000	  53.9949000000	  11.7310000000
H	  17.0668000000	  50.9602000000	  12.7784000000
H	  15.7220000000	  50.3275000000	  11.7863000000
S	  17.9175000000	  53.2133000000	  15.1016000000
O	  18.8598000000	  52.7387000000	  13.8031000000
O	  17.4372000000	  54.8268000000	  14.7521000000
O	  16.6578000000	  52.2725000000	  15.1627000000
C	  20.2048000000	  52.9680000000	  14.0115000000
C	  17.9380000000	  55.8378000000	  15.5523000000
C	  20.9984000000	  52.7884000000	  12.7164000000
C	  17.4930000000	  57.2041000000	  14.9989000000
H	  20.4549000000	  53.9906000000	  14.4265000000
H	  20.5426000000	  52.2793000000	  14.7959000000
H	  17.6572000000	  55.7267000000	  16.5705000000
H	  18.9746000000	  55.6943000000	  15.4526000000
H	  20.6466000000	  53.3659000000	  11.8728000000
H	  22.1034000000	  52.8188000000	  12.9358000000
H	  20.8771000000	  51.8174000000	  12.3287000000
H	  17.7288000000	  58.1633000000	  15.4431000000
H	  17.8492000000	  57.2567000000	  14.0041000000
H	  16.3974000000	  57.2369000000	  15.0783000000
N	  15.3382000000	  54.9262000000	  17.2736000000
S	  15.6033000000	  55.2262000000	  18.7937000000
O	  14.3929000000	  55.1028000000	  19.6344000000
O	  16.9228000000	  54.8582000000	  19.2705000000
C	  15.6841000000	  57.0671000000	  18.7927000000
F	  14.5829000000	  57.4977000000	  18.1575000000
F	  16.8097000000	  57.5261000000	  18.2132000000
F	  15.6598000000	  57.6495000000	  19.9937000000
S	  14.0280000000	  54.3269000000	  16.6389000000
O	  12.8079000000	  54.4726000000	  17.4327000000
O	  14.2787000000	  53.0122000000	  16.1977000000
C	  13.6719000000	  55.2459000000	  15.1839000000
F	  14.5920000000	  54.9359000000	  14.3004000000
F	  12.5992000000	  54.7560000000	  14.5346000000
F	  13.5720000000	  56.5731000000	  15.3644000000
