71

Li	  15.4630000000	  45.4224000000	  23.8741000000
O	  13.2419000000	  42.7279000000	  25.8516000000
O	  13.7820000000	  44.5746000000	  24.7000000000
C	  13.2965000000	  43.7664000000	  26.8120000000
C	  13.1729000000	  45.0303000000	  25.9016000000
C	  13.4800000000	  43.2452000000	  24.5679000000
H	  12.6254000000	  43.6787000000	  27.7046000000
H	  14.3085000000	  43.7062000000	  27.0631000000
H	  12.0643000000	  45.2135000000	  25.8022000000
H	  13.6303000000	  45.9025000000	  26.3867000000
H	  14.2415000000	  42.7461000000	  24.0238000000
H	  12.6162000000	  43.1175000000	  23.9406000000
O	  16.3412000000	  47.0361000000	  23.4938000000
O	  16.3924000000	  49.1243000000	  24.2665000000
C	  17.7234000000	  47.2259000000	  23.7318000000
C	  17.7058000000	  48.5589000000	  24.5439000000
C	  15.5834000000	  48.0798000000	  24.0506000000
H	  18.2454000000	  46.4305000000	  24.3198000000
H	  18.3263000000	  47.4533000000	  22.9041000000
H	  17.6427000000	  48.4182000000	  25.6101000000
H	  18.5595000000	  49.1914000000	  24.3316000000
H	  14.9397000000	  48.4773000000	  23.3575000000
H	  15.0893000000	  47.7724000000	  24.9811000000
S	  17.2826000000	  42.3464000000	  23.9821000000
O	  18.6268000000	  42.3820000000	  23.0236000000
O	  17.6684000000	  41.9397000000	  25.5835000000
O	  16.5791000000	  43.6942000000	  23.9111000000
C	  19.8256000000	  43.0020000000	  23.5520000000
C	  16.5770000000	  41.8085000000	  26.5233000000
C	  21.0492000000	  42.1751000000	  23.2271000000
C	  17.2967000000	  41.6398000000	  27.8337000000
H	  19.9162000000	  44.0382000000	  23.1580000000
H	  19.8349000000	  42.9905000000	  24.6577000000
H	  15.9235000000	  42.6216000000	  26.4932000000
H	  16.0735000000	  40.9129000000	  26.1659000000
H	  21.9300000000	  42.6202000000	  23.5905000000
H	  20.8766000000	  41.1524000000	  23.6536000000
H	  21.1546000000	  42.0772000000	  22.1181000000
H	  18.0795000000	  40.8598000000	  27.8566000000
H	  17.8579000000	  42.5504000000	  28.1036000000
H	  16.6568000000	  41.4142000000	  28.6650000000
N	  13.8619000000	  42.2711000000	  21.5229000000
S	  14.1862000000	  43.7458000000	  21.0534000000
O	  14.7463000000	  44.6417000000	  22.0362000000
O	  14.7914000000	  43.7426000000	  19.7395000000
C	  12.5023000000	  44.4603000000	  20.6865000000
F	  11.8908000000	  44.6031000000	  21.8628000000
F	  11.7593000000	  43.7094000000	  19.9722000000
F	  12.5369000000	  45.6684000000	  20.1525000000
S	  14.4092000000	  40.9473000000	  20.8571000000
O	  15.8468000000	  40.9146000000	  20.8816000000
O	  13.6557000000	  40.4910000000	  19.7231000000
C	  14.0063000000	  39.7049000000	  22.0588000000
F	  12.7990000000	  39.4624000000	  22.4341000000
F	  14.5269000000	  38.5780000000	  21.6834000000
F	  14.5611000000	  40.0795000000	  23.2042000000
N	  16.1656000000	  44.8599000000	  28.4460000000
S	  15.4971000000	  45.1828000000	  29.8429000000
O	  16.2884000000	  45.9798000000	  30.7635000000
O	  14.0318000000	  45.4502000000	  29.7763000000
C	  15.6727000000	  43.5539000000	  30.6458000000
F	  17.0002000000	  43.1471000000	  30.6379000000
F	  14.9816000000	  42.6498000000	  29.8819000000
F	  15.3078000000	  43.4709000000	  31.8778000000
S	  16.6432000000	  45.8539000000	  27.3328000000
O	  16.4385000000	  47.2457000000	  27.7287000000
O	  16.2505000000	  45.5645000000	  25.9809000000
C	  18.4452000000	  45.6817000000	  27.1945000000
F	  18.7729000000	  44.5271000000	  26.6180000000
F	  19.0305000000	  46.6638000000	  26.4733000000
F	  19.0551000000	  45.6841000000	  28.3188000000
