66

Li	  16.4105000000	  17.5468000000	  48.6184000000
O	  12.3893000000	  16.9301000000	  49.2814000000
O	  14.4119000000	  17.2530000000	  48.6780000000
C	  12.4411000000	  18.3179000000	  48.9620000000
C	  13.8103000000	  18.5025000000	  48.3803000000
C	  13.4001000000	  16.3341000000	  48.6004000000
H	  11.7294000000	  18.7713000000	  48.2412000000
H	  12.5012000000	  18.7534000000	  49.9614000000
H	  13.9109000000	  18.7635000000	  47.3402000000
H	  14.2925000000	  19.2275000000	  48.8943000000
H	  13.7331000000	  15.3649000000	  49.0306000000
H	  13.1734000000	  16.1957000000	  47.5199000000
S	  16.5930000000	  18.5767000000	  45.2976000000
O	  16.8430000000	  20.3025000000	  45.2241000000
O	  17.9585000000	  17.7108000000	  44.6821000000
O	  16.3424000000	  18.1242000000	  46.7408000000
C	  16.1427000000	  21.0652000000	  44.2513000000
C	  19.1439000000	  18.3950000000	  44.5641000000
C	  16.6602000000	  22.4867000000	  43.9640000000
C	  19.2353000000	  19.2772000000	  43.3441000000
H	  16.2744000000	  20.5508000000	  43.3058000000
H	  15.0420000000	  21.0594000000	  44.4864000000
H	  19.4371000000	  19.0673000000	  45.3742000000
H	  19.8974000000	  17.6414000000	  44.6957000000
H	  16.6120000000	  23.0722000000	  44.8413000000
H	  17.7448000000	  22.4414000000	  43.7346000000
H	  16.2192000000	  22.9751000000	  43.0496000000
H	  18.5632000000	  20.1292000000	  43.4308000000
H	  20.1865000000	  19.6107000000	  43.1028000000
H	  18.8143000000	  18.7624000000	  42.4405000000
S	  18.8996000000	  16.8488000000	  48.2311000000
O	  19.9247000000	  16.2424000000	  49.5323000000
O	  17.6016000000	  15.7328000000	  48.1869000000
O	  18.2657000000	  18.1248000000	  48.8165000000
C	  20.8281000000	  17.2515000000	  50.0505000000
C	  17.7408000000	  14.7481000000	  47.2200000000
C	  21.5748000000	  16.6995000000	  51.2901000000
C	  16.7251000000	  13.7131000000	  47.5795000000
H	  21.6048000000	  17.4848000000	  49.2653000000
H	  20.0967000000	  18.0654000000	  50.2811000000
H	  17.5185000000	  15.2327000000	  46.1790000000
H	  18.7207000000	  14.3146000000	  47.1336000000
H	  22.2107000000	  17.4186000000	  51.8161000000
H	  20.7979000000	  16.5074000000	  52.0263000000
H	  22.1217000000	  15.8251000000	  50.9927000000
H	  16.6253000000	  13.1174000000	  46.6419000000
H	  17.0828000000	  13.1882000000	  48.4534000000
H	  15.7157000000	  14.1457000000	  47.8648000000
S	  16.3005000000	  17.9473000000	  51.6077000000
O	  14.8742000000	  18.3290000000	  52.3986000000
O	  16.4312000000	  16.2899000000	  51.3986000000
O	  16.1489000000	  18.5013000000	  50.2230000000
C	  13.8959000000	  17.3270000000	  52.4473000000
C	  17.4027000000	  15.6759000000	  52.2146000000
C	  12.7429000000	  17.9769000000	  53.2564000000
C	  17.3113000000	  14.2853000000	  51.7736000000
H	  13.5792000000	  17.1178000000	  51.5176000000
H	  14.2254000000	  16.3304000000	  52.8388000000
H	  18.3586000000	  16.1897000000	  52.0651000000
H	  17.0390000000	  15.9329000000	  53.2500000000
H	  12.0170000000	  17.2941000000	  53.3471000000
H	  13.1592000000	  18.2539000000	  54.2155000000
H	  12.3277000000	  18.8183000000	  52.7098000000
H	  16.3122000000	  13.7965000000	  51.7940000000
H	  17.4504000000	  14.3420000000	  50.6929000000
H	  18.0347000000	  13.6473000000	  52.2559000000
