39

Li	   3.3560300000	  13.6515000000	  56.2607000000
O	   6.0440900000	  15.5649000000	  58.7832000000
O	   4.5866300000	  15.0924000000	  57.0782000000
C	   6.7842500000	  14.9148000000	  57.7885000000
C	   5.9725100000	  15.1296000000	  56.5541000000
C	   4.6590800000	  15.3747000000	  58.4404000000
H	   7.7965100000	  15.3703000000	  57.7358000000
H	   6.7898700000	  13.8665000000	  58.0740000000
H	   6.0852300000	  16.1149000000	  56.0189000000
H	   6.2923400000	  14.3909000000	  55.7685000000
H	   4.1730900000	  14.5324000000	  58.9630993784
H	   4.0031000000	  16.2283000000	  58.7224000000
O	  -0.4960556908	  13.8709000000	  57.3544000000
O	   1.6983100000	  14.2898000000	  56.9032000000
C	  -0.3055556908	  15.2725000000	  57.3979000000
C	   1.2110600000	  15.4340000000	  57.5912000000
C	   0.7610443092	  13.3275000000	  57.2938000000
H	  -0.5870556908	  15.6125000000	  56.3993000000
H	  -0.8581556908	  15.8477000000	  58.1200000000
H	   1.6126800000	  16.3150000000	  57.0158000000
H	   1.6666000000	  15.4141000000	  58.6068000000
H	   1.0170443092	  12.9112000000	  58.2541000000
H	   0.7718443092	  12.3969000000	  56.6770000000
S	   3.4941800000	  11.8530000000	  57.5274000000
S	   5.2745400000	  10.6841000000	  57.3793000000
S	   6.5910300000	  11.6523000000	  56.1014000000
S	   9.9262900000	  11.2323000000	  52.8343000000
S	  11.7445000000	  11.0321000000	  53.7247000000
S	  13.3574000000	  10.5556000000	  52.3600000000
S	   8.3752800000	   9.9035900000	  53.5752000000
S	   6.5536000000	  10.8069000000	  54.1702000000
S	  -5.2956556908	  18.4164000000	  56.6814000000
S	  -3.4656556908	  17.4015000000	  56.4003000000
S	  -3.6955556908	  15.8035000000	  55.0619000000
S	   0.2967443092	  14.4713000000	  52.2801000000
S	   1.3988900000	  13.3553000000	  53.7888000000
S	   3.4170700000	  13.9631000000	  53.9890000000
S	  -1.8698556908	  14.2181000000	  52.3175000000
S	  -3.0294556908	  15.9904000000	  53.0438000000
