28

Li	  48.6600000000	  14.9146000000	  54.0402000000
O	  48.1407000000	  14.2736000000	  52.1727000000
O	  48.5368000000	  13.6109000000	  50.0778000000
C	  47.2799000000	  13.1518000000	  51.9018000000
C	  48.0759000000	  12.4157000000	  50.7848000000
C	  48.4967000000	  14.6918000000	  50.9023000000
H	  47.0143000000	  12.5200000000	  52.7671000000
H	  46.3179000000	  13.5778000000	  51.5566000000
H	  48.9917000000	  11.9262000000	  51.1834000000
H	  47.4839000000	  11.5789000000	  50.3115000000
H	  47.7896000000	  15.4280000000	  50.5794000000
H	  49.4207000000	  15.2348000000	  50.9484000000
S	  48.1120000000	  14.5612000000	  55.9473000000
S	  48.6809000000	  12.6603000000	  55.2310000000
S	  50.5713000000	  12.7457000000	  54.2704000000
S	  55.0516000000	  14.3086000000	  55.7284000000
S	  56.3818000000	  14.3957000000	  57.3541000000
S	  57.2443000000	  16.3274000000	  57.5522000000
S	  53.0790000000	  14.2111000000	  56.4276000000
S	  52.2150000000	  12.5082000000	  55.5486000000
S	  49.3168000000	  17.0256000000	  53.9151000000
S	  50.9771000000	  16.5407000000	  52.7574000000
S	  51.6378000000	  17.9523000000	  51.4206000000
S	  53.5993000000	  17.4909000000	  47.1583000000
S	  55.4051000000	  17.8542000000	  48.0612000000
S	  56.9696000000	  17.1765000000	  46.7719000000
S	  51.9695000000	  18.4475000000	  47.9192000000
S	  50.9419000000	  17.4175000000	  49.5017000000
