31

Li	  45.4515000000	  45.8520000000	  25.0647000000
O	  44.9089000000	  49.4439000000	  27.0877000000
O	  44.8400000000	  47.6350000000	  25.7729000000
C	  43.8684000000	  49.6417000000	  26.1362000000
C	  43.5262000000	  48.2180000000	  25.7581000000
C	  45.7033000000	  48.5453000000	  26.3991000000
H	  42.9406000000	  50.1132000000	  26.5211000000
H	  44.0775000000	  50.1898000000	  25.1579000000
H	  42.8890000000	  47.7289000000	  26.4834000000
H	  43.0084000000	  48.0733000000	  24.7850000000
H	  46.2985000000	  49.1344000000	  25.6485000000
H	  46.3651000000	  47.9680000000	  27.0947000000
O	  49.1712000000	  45.3013000000	  24.2830000000
O	  47.3169000000	  45.8114000000	  25.4565000000
C	  49.5415000000	  45.1983000000	  25.6332000000
C	  48.2204000000	  45.3110000000	  26.4399000000
C	  47.8356000000	  45.1694000000	  24.3257000000
H	  49.9184000000	  44.1702000000	  25.7059000000
H	  50.2715000000	  45.9479000000	  26.0215000000
H	  47.8868000000	  44.3201000000	  26.8176000000
H	  48.3380000000	  46.0424000000	  27.2693000000
H	  47.3824000000	  45.6753000000	  23.5524000000
H	  47.3489000000	  44.1645000000	  24.1555000000
S	  44.4706000000	  44.8425000000	  23.5629000000
S	  43.6337000000	  44.5220000000	  25.4749000000
S	  44.9091000000	  44.2574000000	  27.0712000000
S	  46.4146000000	  40.7625000000	  24.2223000000
S	  46.4402000000	  38.6289000000	  24.4888000000
S	  44.5626000000	  37.9054000000	  23.8668000000
S	  46.9923000000	  41.7692000000	  25.9667000000
S	  45.3619000000	  42.2185000000	  27.2976000000
