57

Li	  20.6013000000	  28.0670000000	  17.3281000000
S	  20.5944000000	  24.9612000000	  16.9147000000
O	  20.6102000000	  24.5830000000	  15.2277000000
O	  21.6340000000	  23.8124000000	  17.6729000000
O	  21.1767000000	  26.3326000000	  17.1118000000
C	  19.7468000000	  25.4170000000	  14.4959000000
C	  21.1083000000	  22.4913000000	  17.8188000000
C	  19.6509000000	  25.1112000000	  12.9553000000
C	  22.1358000000	  21.5824000000	  18.3629000000
H	  18.7293000000	  25.3271000000	  14.9120000000
H	  20.0369000000	  26.4902000000	  14.6521000000
H	  20.1971000000	  22.2938000000	  18.3434000000
H	  20.7776000000	  22.1448000000	  16.8287000000
H	  20.7146000000	  25.0110000000	  12.4932000000
H	  19.0744000000	  24.1964000000	  12.8590000000
H	  19.1803000000	  25.8077000000	  12.3465000000
H	  21.7389000000	  20.5760000000	  18.3327000000
H	  23.1041000000	  21.6362000000	  17.9019000000
H	  22.2655000000	  21.8432000000	  19.4129000000
N	  19.6121000000	  30.9088000000	  20.1452000000
S	  20.5260000000	  31.6591000000	  19.1574000000
O	  21.3135000000	  30.8006000000	  18.3025000000
O	  19.9145000000	  32.8145000000	  18.5851000000
C	  21.7864000000	  32.2771000000	  20.3736000000
F	  22.8352000000	  32.7693000000	  19.6436000000
F	  22.3071000000	  31.3090000000	  21.1477000000
F	  21.4194000000	  33.2793000000	  21.1336000000
S	  19.4370000000	  29.2974000000	  20.3417000000
O	  20.0309000000	  28.7353000000	  21.5237000000
O	  19.4031000000	  28.6191000000	  19.1112000000
C	  17.6832000000	  29.2837000000	  20.6751000000
F	  16.8754000000	  29.6977000000	  19.6918000000
F	  17.1883000000	  28.0920000000	  21.0623000000
F	  17.4042000000	  29.9448000000	  21.7804000000
N	  16.6082000000	  28.7026000000	  16.3911000000
S	  17.9150000000	  29.5562000000	  16.3312000000
O	  17.8912000000	  30.7177000000	  17.2080000000
O	  19.0963000000	  28.7321000000	  16.0552000000
C	  17.7168000000	  30.2918000000	  14.6462000000
F	  16.6589000000	  31.1085000000	  14.6181000000
F	  17.5792000000	  29.4042000000	  13.7471000000
F	  18.7775000000	  30.9794000000	  14.3379000000
S	  16.4972000000	  27.3452000000	  17.1177000000
O	  15.9317000000	  27.4193000000	  18.4531000000
O	  17.5923000000	  26.4491000000	  16.9393000000
C	  15.0437000000	  26.5686000000	  16.2197000000
F	  14.7166000000	  25.4333000000	  16.7911000000
F	  13.9625000000	  27.3066000000	  16.4209000000
F	  15.2297000000	  26.3792000000	  14.9322000000
S	  22.2909000000	  28.8483000000	  16.0452000000
S	  24.0517000000	  28.1825000000	  17.0877000000
S	  24.4998000000	  29.2583000000	  18.8206000000
S	  29.2561000000	  30.1151000000	  17.4644000000
S	  30.0180000000	  28.1832000000	  17.8639000000
S	  28.7494000000	  26.7812000000	  16.9616000000
S	  27.8314000000	  30.6408000000	  18.9905000000
S	  25.7810000000	  30.9919000000	  18.4109000000
