28

Li	  55.5919000000	  14.2112000000	  26.6788000000
O	  55.9017000000	  14.6158000000	  24.8400000000
O	  55.8926000000	  13.3195000000	  23.0053000000
C	  57.1489000000	  14.8582000000	  24.2863000000
C	  57.2332000000	  13.8250000000	  23.1994000000
C	  55.1549000000	  14.0514000000	  23.8036000000
H	  57.2132000000	  15.8827000000	  23.8978000000
H	  57.9876000000	  14.8230000000	  24.9736000000
H	  57.7784000000	  14.2614000000	  22.3313000000
H	  57.8435000000	  12.9113000000	  23.3642000000
H	  54.3079000000	  13.4711000000	  24.1601000000
H	  54.8192000000	  14.8704000000	  23.1833000000
S	  54.1914000000	  12.6253000000	  26.8651000000
S	  55.4363000000	  11.1587000000	  25.9890000000
S	  57.4800000000	  11.6443000000	  26.1483000000
S	  61.9648056908	   8.4744900000	  25.3793000000
S	  63.1251056908	   7.7135300000	  26.8884000000
S	  65.0660656908	   8.5826600000	  26.7415000000
S	  60.8376656908	  10.1487000000	  26.0079000000
S	  58.7548000000	  10.1492000000	  25.3178000000
S	  56.9495000000	   8.2188600000	  34.2808000000
S	  55.7358000000	   9.9614200000	  33.9780000000
S	  56.6479000000	  11.7474000000	  34.8463000000
S	  56.1342000000	  13.8402000000	  30.5258000000
S	  57.3019000000	  14.6585000000	  28.9515000000
S	  56.1422000000	  16.0099000000	  27.8702000000
S	  56.9223000000	  14.4344000000	  32.3225000000
S	  57.8456000000	  12.8434000000	  33.3817000000
