49

Li	  19.5150000000	   9.0759900000	  37.0628000000
O	  20.8472000000	   8.9466700000	  35.7644000000
O	  23.0973000000	   8.7307100000	  36.1560000000
C	  21.2088000000	   7.6698900000	  35.2110000000
C	  22.6435000000	   7.5302800000	  35.7597000000
C	  22.0980000000	   9.5939800000	  35.7938000000
H	  20.5075000000	   6.9732800000	  35.6107000000
H	  21.2380000000	   7.6595500000	  34.0937000000
H	  22.6641000000	   6.7955700000	  36.6217000000
H	  23.3213000000	   7.0222800000	  34.9885000000
H	  22.2617000000	  10.0862000000	  34.7539000000
H	  22.2063000000	  10.5121000000	  36.4935000000
O	  20.2731000000	   9.2461900000	  40.9661000000
O	  20.4838000000	   9.1882600000	  38.6805000000
C	  21.3280000000	   8.3888800000	  40.6760000000
C	  21.7898000000	   8.9054800000	  39.2860000000
C	  19.9226000000	   9.8063100000	  39.7777000000
H	  21.9440000000	   8.5137000000	  41.5610000000
H	  20.9509000000	   7.3852500000	  40.5995000000
H	  22.3433000000	   9.8560400000	  39.4069000000
H	  22.3393000000	   8.1901800000	  38.7393000000
H	  18.7964000000	   9.7338200000	  39.7966000000
H	  20.1809000000	  10.8828000000	  39.7552000000
S	  17.4512000000	   7.2963500000	  38.2652000000
O	  18.2935000000	   6.7537700000	  39.6467000000
O	  16.6669000000	   8.7347200000	  38.7345000000
O	  18.4860000000	   7.7349800000	  37.2851000000
C	  17.6433000000	   5.6489700000	  40.2639000000
C	  15.3852000000	   8.9542000000	  38.1756000000
C	  18.6851000000	   5.1427900000	  41.3073000000
C	  14.8233000000	  10.2254000000	  38.7909000000
H	  16.6367000000	   5.8576600000	  40.7482000000
H	  17.4393000000	   4.8345400000	  39.5432000000
H	  15.4879000000	   8.9351800000	  37.0199000000
H	  14.7286000000	   8.1536700000	  38.4690000000
H	  19.5904000000	   4.8695900000	  40.8648000000
H	  18.8366000000	   5.8771000000	  42.0631000000
H	  18.3002000000	   4.2880700000	  41.7843000000
H	  14.8817000000	  10.1448000000	  39.8588000000
H	  15.4918000000	  11.1557000000	  38.6234000000
H	  13.8042000000	  10.5488000000	  38.4149000000
S	  18.1425000000	  10.4609000000	  36.4949000000
S	  19.6012000000	  12.0302000000	  36.9350000000
S	  18.9578000000	  13.5376000000	  38.1959000000
S	  18.4827000000	  18.4069000000	  37.3472000000
S	  20.4168000000	  18.7544000000	  38.2752000000
S	  22.0135000000	  18.8558000000	  36.7429000000
S	  17.5962000000	  16.7058000000	  38.1510000000
S	  17.9855000000	  14.9508000000	  37.0471000000
