71

Li	  41.1786000000	  18.9348000000	  10.1417000000
S	  40.6701000000	  17.1726000000	  12.9617000000
O	  40.5616000000	  17.9266000000	  11.7099000000
O	  39.4980000000	  16.3613000000	  13.3402000000
C	  40.8802000000	  18.3601000000	  14.3063000000
C	  42.1135000000	  16.1537000000	  12.9610000000
C	  39.5710000000	  19.1835000000	  14.6020000000
H	  41.2708000000	  17.8272000000	  15.1641000000
H	  41.5957000000	  19.1694000000	  14.0330000000
H	  41.9294000000	  15.4943000000	  12.0754000000
H	  42.9996000000	  16.7366000000	  12.7876000000
H	  42.3826000000	  15.4593000000	  13.8042000000
H	  39.7911000000	  19.9950000000	  15.2876000000
H	  39.1053000000	  19.5212000000	  13.7200000000
H	  38.8031000000	  18.5943000000	  15.1154000000
S	  42.8431000000	  21.0526000000	  11.9115000000
O	  43.5777000000	  20.2262000000	  12.8518000000
O	  42.2425000000	  20.4104000000	  10.7399000000
C	  43.8310000000	  22.4668000000	  11.2668000000
C	  41.5996000000	  22.0163000000	  12.8077000000
C	  44.9091000000	  21.8542000000	  10.3634000000
H	  43.2510000000	  23.2490000000	  10.7161000000
H	  44.3332000000	  22.9671000000	  12.0576000000
H	  42.0602000000	  22.4381000000	  13.6012000000
H	  41.2363000000	  22.6735000000	  12.0753000000
H	  40.8136000000	  21.3815000000	  13.0698000000
H	  45.6090000000	  22.5648000000	   9.9795300000
H	  45.4993000000	  21.1684000000	  10.9075000000
H	  44.4335000000	  21.2629000000	   9.5743900000
S	  38.6319000000	  21.1866000000	  10.0737000000
O	  39.4855000000	  20.0275000000	  10.4073000000
O	  39.2768000000	  22.5113000000	  10.1229000000
C	  37.2190000000	  21.1344000000	  11.1920000000
C	  37.9639000000	  20.8587000000	   8.4553500000
C	  36.5659000000	  22.5032000000	  11.3540000000
H	  36.3986000000	  20.4779000000	  10.8598000000
H	  37.6414000000	  20.6785000000	  12.1391000000
H	  37.5658000000	  21.7086000000	   7.9981100000
H	  38.8461000000	  20.5238000000	   7.9363600000
H	  37.2264000000	  20.0868000000	   8.5411800000
H	  37.3118000000	  23.2243000000	  11.6875000000
H	  36.1948000000	  22.7722000000	  10.3339000000
H	  35.7929000000	  22.6208000000	  12.1617000000
S	  43.7257000000	  17.1603000000	   8.7836700000
O	  42.8258000000	  17.8654000000	   9.7364400000
O	  43.3517000000	  15.8310000000	   8.2434400000
C	  45.2960000000	  16.7601000000	   9.5645600000
C	  44.1218000000	  18.3524000000	   7.4424900000
C	  45.8448000000	  18.0085000000	  10.1713000000
H	  45.0385000000	  16.0364000000	  10.3703000000
H	  45.9730000000	  16.2630000000	   8.8594400000
H	  45.1180000000	  18.0931000000	   6.9854300000
H	  43.3119000000	  18.3723000000	   6.6584200000
H	  44.3596000000	  19.4151000000	   7.7756600000
H	  46.7311000000	  17.8986000000	  10.7161000000
H	  46.2233000000	  18.6564000000	   9.3568100000
H	  45.0335000000	  18.4913000000	  10.7633000000
S	  39.8426000000	  17.1899000000	   7.8045500000
O	  40.3624000000	  18.3792000000	   8.4463900000
O	  40.7712000000	  16.0857000000	   7.4885900000
C	  38.8119000000	  17.5993000000	   6.3155000000
C	  38.4889000000	  16.4727000000	   8.7687100000
C	  39.5140000000	  18.5606000000	   5.3671900000
H	  38.6551000000	  16.6952000000	   5.7021300000
H	  37.7715000000	  17.8575000000	   6.6176800000
H	  37.5527000000	  17.0354000000	   8.9662600000
H	  38.2997000000	  15.4085000000	   8.3652300000
H	  38.7878000000	  16.1766000000	   9.8098200000
H	  40.4704000000	  18.1525000000	   5.0733400000
H	  38.8835000000	  18.7936000000	   4.5093000000
H	  39.7869000000	  19.4016000000	   5.9207100000
