51

Li	  24.9381000000	  40.3517000000	  41.6650000000
O	  25.2363000000	  39.2142000000	  43.2496000000
O	  26.3276000000	  37.3939000000	  44.1038000000
C	  25.7436000000	  39.6416000000	  44.4929000000
C	  26.8986000000	  38.6074000000	  44.7273000000
C	  25.2952000000	  37.8415000000	  43.2912000000
H	  26.1824000000	  40.6555000000	  44.4166000000
H	  24.9346000000	  39.5416000000	  45.2007000000
H	  27.8058000000	  38.8777000000	  44.1163000000
H	  27.2713000000	  38.4406000000	  45.7666000000
H	  24.3549000000	  37.4070000000	  43.6149000000
H	  25.5016000000	  37.4867000000	  42.3007000000
O	  24.9743000000	  44.3495000000	  41.0643000000
O	  25.0663000000	  42.2310000000	  41.8496000000
C	  26.2341000000	  44.1542000000	  41.4354000000
C	  26.0118000000	  43.0097000000	  42.4372000000
C	  24.3667000000	  43.1705000000	  41.0405000000
H	  26.8785000000	  43.8365000000	  40.5775000000
H	  26.6207000000	  44.9815000000	  41.9744000000
H	  26.9558000000	  42.5383000000	  42.5850000000
H	  25.6631000000	  43.3473000000	  43.3859000000
H	  23.2912000000	  43.4164000000	  41.4542000000
H	  24.3057000000	  42.8369000000	  39.9960000000
S	  22.2374000000	  38.8602000000	  40.2894000000
O	  23.5984000000	  39.2931000000	  40.6032000000
O	  21.4807000000	  37.9827000000	  41.1601000000
C	  22.2005000000	  38.1922000000	  38.5967000000
C	  21.1923000000	  40.3065000000	  40.1242000000
C	  22.4352000000	  36.6367000000	  38.7618000000
H	  21.2881000000	  38.5260000000	  38.1498000000
H	  22.9900000000	  38.7244000000	  38.0718000000
H	  21.5129000000	  41.0799000000	  39.4021000000
H	  20.2312000000	  39.9571000000	  39.8141000000
H	  20.9012000000	  40.6661000000	  41.0833000000
H	  23.3277000000	  36.4151000000	  39.4404000000
H	  21.5171000000	  36.2397000000	  39.2009000000
H	  22.7278000000	  36.1427000000	  37.8621000000
S	  27.9824000000	  39.8835000000	  40.5958000000
O	  28.7798000000	  40.0250000000	  41.7767000000
O	  26.5108000000	  40.0415000000	  40.7142000000
C	  28.4330000000	  38.1845000000	  39.9802000000
C	  28.5360000000	  41.0649000000	  39.3801000000
C	  28.2940000000	  37.0275000000	  41.0178000000
H	  27.7454000000	  38.1327000000	  39.1427000000
H	  29.3813000000	  38.2029000000	  39.4800000000
H	  27.8851000000	  41.2295000000	  38.5868000000
H	  28.7133000000	  41.9477000000	  39.9535000000
H	  29.4790000000	  40.7593000000	  38.9492000000
H	  27.4595000000	  37.3068000000	  41.5917000000
H	  28.1410000000	  36.0540000000	  40.5616000000
H	  29.1446000000	  36.9283000000	  41.6037000000
