44

Li	  24.7483000000	  47.5835000000	  18.6211000000
S	  24.0981000000	  44.6280000000	  17.6452000000
O	  24.3377000000	  46.0684000000	  17.5704000000
O	  22.6746000000	  44.1907000000	  17.6388000000
C	  24.8600000000	  43.9077000000	  19.1461000000
C	  24.8301000000	  43.7884000000	  16.2734000000
C	  24.4380000000	  42.4118000000	  19.2758000000
H	  25.9245000000	  44.0084000000	  18.9730000000
H	  24.5861000000	  44.5296000000	  20.0335000000
H	  24.4927000000	  42.7710000000	  16.2857000000
H	  24.5212000000	  44.2417000000	  15.2760000000
H	  25.9094000000	  43.9500000000	  16.3689000000
H	  23.3892000000	  42.3149000000	  19.6509000000
H	  24.4763000000	  41.8502000000	  18.3173000000
H	  24.9567000000	  41.9075000000	  20.1581000000
S	  25.4010000000	  50.8216000000	  17.5893000000
O	  24.9295000000	  49.5725000000	  18.1855000000
O	  26.8246000000	  51.1395000000	  17.6695000000
C	  24.5345000000	  52.3238000000	  18.2470000000
C	  24.9642000000	  50.8082000000	  15.8565000000
C	  25.0944000000	  53.6695000000	  17.7157000000
H	  23.4651000000	  52.2202000000	  18.1367000000
H	  24.6712000000	  52.3013000000	  19.3843000000
H	  25.2148000000	  51.7146000000	  15.4006000000
H	  25.4436000000	  50.0283000000	  15.3143000000
H	  23.9247000000	  50.5153000000	  15.8012000000
H	  24.7529000000	  54.4257000000	  18.3797000000
H	  26.1770000000	  53.7154000000	  17.6590000000
H	  24.7622000000	  53.8353000000	  16.7796000000
N	  25.8270000000	  48.9071000000	  21.7471000000
S	  27.2807000000	  49.4213000000	  21.8579000000
O	  27.9769000000	  48.8895000000	  23.0353000000
O	  28.0103000000	  49.3817000000	  20.6233000000
C	  27.0077000000	  51.1960000000	  22.3359000000
F	  25.9914000000	  51.3330000000	  23.1812000000
F	  26.6901000000	  51.9203000000	  21.2735000000
F	  28.0536000000	  51.6826000000	  22.9055000000
S	  25.3989000000	  47.4219000000	  21.6354000000
O	  26.4022000000	  46.4967000000	  22.1771000000
O	  24.7774000000	  47.1605000000	  20.3322000000
C	  24.0111000000	  47.3406000000	  22.7907000000
F	  23.4032000000	  46.1691000000	  22.7997000000
F	  24.4190000000	  47.5367000000	  24.0042000000
F	  23.1295000000	  48.3176000000	  22.6915000000
