57

Li	  50.6473000000	  39.4531000000	   8.3355000000
S	  49.0525000000	  42.0264000000	   8.3757200000
O	  50.1787000000	  41.1817000000	   7.9581200000
O	  48.0519000000	  41.4953000000	   9.3222400000
C	  48.1636000000	  42.4743000000	   6.8560600000
C	  49.6881000000	  43.6360000000	   8.9100000000
C	  47.3862000000	  41.3178000000	   6.2452900000
H	  47.6116000000	  43.3629000000	   7.2416400000
H	  48.9035000000	  42.7937000000	   6.2530800000
H	  50.2428000000	  44.0801000000	   8.0692700000
H	  48.8598000000	  44.2173000000	   9.0734100000
H	  50.2848000000	  43.6881000000	   9.8401400000
H	  46.8741000000	  41.5598000000	   5.2893700000
H	  48.0714000000	  40.5390000000	   5.9222900000
H	  46.7629000000	  40.7606000000	   6.9662600000
S	  53.0289000000	  37.6016000000	   7.4211600000
O	  52.1663000000	  38.7825000000	   7.6739700000
O	  53.3389000000	  36.7138000000	   8.5592800000
C	  54.5523000000	  38.1236000000	   6.5864400000
C	  52.2612000000	  36.6176000000	   6.1224400000
C	  55.4062000000	  38.9800000000	   7.5653700000
H	  55.0208000000	  37.2581000000	   6.2114700000
H	  54.2554000000	  38.6117000000	   5.7149900000
H	  52.8430000000	  35.6673000000	   6.0042900000
H	  51.2219000000	  36.3115000000	   6.3977700000
H	  52.2484000000	  37.1975000000	   5.1728100000
H	  55.8782000000	  38.5178000000	   8.4093400000
H	  56.1404000000	  39.5407000000	   6.9630600000
H	  54.7860000000	  39.8021000000	   7.9530100000
S	  51.3304000000	  39.2402000000	  11.4885000000
O	  51.0370000000	  39.6305000000	  10.0878000000
O	  50.3396000000	  38.6517000000	  12.3494000000
C	  51.9174000000	  40.7666000000	  12.3167000000
C	  52.8636000000	  38.1992000000	  11.3884000000
C	  50.6354000000	  41.6129000000	  12.5443000000
H	  52.3822000000	  40.5068000000	  13.2675000000
H	  52.7441000000	  41.2865000000	  11.7539000000
H	  53.3356000000	  38.1392000000	  12.4083000000
H	  52.5064000000	  37.3124000000	  10.9203000000
H	  53.5052000000	  38.7015000000	  10.6710000000
H	  50.9408000000	  42.6102000000	  12.8989000000
H	  50.0896000000	  41.8358000000	  11.5385000000
H	  49.8654000000	  41.1371000000	  13.1595000000
S	  48.2753000000	  37.7941000000	   9.1604500000
O	  49.0579000000	  38.7039000000	   8.2669000000
O	  48.3941000000	  37.8469000000	  10.6021000000
C	  48.7143000000	  36.0684000000	   8.5299000000
C	  46.5538000000	  38.1525000000	   8.7097000000
C	  49.9599000000	  35.5660000000	   9.1540900000
H	  47.9429000000	  35.4039000000	   8.7224000000
H	  48.8544000000	  36.0963000000	   7.4927000000
H	  46.4133000000	  37.9187000000	   7.6585200000
H	  45.9069000000	  37.5333000000	   9.2914900000
H	  46.3391000000	  39.2109000000	   8.9578700000
H	  50.7853000000	  36.1657000000	   8.8551200000
H	  49.8455000000	  35.4245000000	  10.2674000000
H	  50.1471000000	  34.6017000000	   8.7078200000
