74

Li	  48.5204000000	  34.9226000000	  32.0162000000
S	  51.5305000000	  36.0904000000	  32.3855000000
F	  52.2940000000	  34.5839000000	  34.3929000000
F	  51.6438000000	  33.6077000000	  32.5612000000
F	  53.6118000000	  34.5475000000	  32.5980000000
O	  50.1297000000	  35.7118000000	  32.1064000000
O	  51.8394000000	  37.2532000000	  33.2540000000
N	  52.2572000000	  36.4223000000	  30.9180000000
C	  51.7004000000	  35.8085000000	  29.6485000000
C	  53.3784000000	  37.4224000000	  30.7178000000
C	  50.8448000000	  36.7167000000	  28.7877000000
C	  54.6609000000	  36.8123000000	  30.1930000000
C	  52.3949000000	  34.6039000000	  33.0307000000
C	  50.5031000000	  36.0788000000	  27.4595000000
C	  55.5741000000	  37.8341000000	  29.3982000000
H	  52.5380000000	  35.4230000000	  29.0363000000
H	  51.0902000000	  34.9096000000	  29.9181000000
H	  52.9748000000	  38.2085000000	  30.1593000000
H	  53.6976000000	  37.9331000000	  31.6350000000
H	  49.9376000000	  36.9395000000	  29.3615000000
H	  51.2695000000	  37.7329000000	  28.5753000000
H	  55.2910000000	  36.4510000000	  30.9660000000
H	  54.3840000000	  36.0401000000	  29.5038000000
H	  51.4394000000	  36.0452000000	  26.9834000000
H	  49.9730000000	  35.1273000000	  27.5620000000
H	  49.9614000000	  36.7758000000	  26.8700000000
H	  56.4958000000	  37.4904000000	  28.8716000000
H	  54.8832000000	  38.2203000000	  28.6349000000
H	  55.8542000000	  38.7000000000	  29.9643000000
N	  47.3626000000	  32.4633000000	  34.0062000000
S	  48.9026000000	  32.6331000000	  34.0807000000
O	  49.5635000000	  31.5668000000	  33.4009000000
O	  49.3582000000	  33.9829000000	  33.8625000000
C	  49.2287000000	  32.2444000000	  35.8331000000
F	  48.4111000000	  32.9318000000	  36.6188000000
F	  50.4598000000	  32.5641000000	  36.1535000000
F	  48.9917000000	  30.9528000000	  36.0632000000
S	  46.3146000000	  33.3177000000	  33.2338000000
O	  45.5377000000	  32.4976000000	  32.3391000000
O	  46.8238000000	  34.6290000000	  32.7820000000
C	  45.2778000000	  33.7788000000	  34.6278000000
F	  44.0424000000	  34.1012000000	  34.2951000000
F	  45.1943000000	  32.8354000000	  35.6143000000
F	  45.7358000000	  34.9046000000	  35.1286000000
N	  48.0970000000	  39.2601000000	  32.5820000000
S	  47.1447000000	  38.3560000000	  31.7178000000
O	  46.9049000000	  38.9408000000	  30.4684000000
O	  47.5477000000	  36.9564000000	  31.7127000000
C	  45.6091000000	  38.3582000000	  32.6463000000
F	  45.8197000000	  37.8337000000	  33.8590000000
F	  44.6271000000	  37.6580000000	  32.0953000000
F	  45.1639000000	  39.6053000000	  32.7975000000
S	  49.5063000000	  39.8147000000	  32.1882000000
O	  49.9736000000	  39.3057000000	  30.9334000000
O	  50.4788000000	  39.8180000000	  33.2862000000
C	  49.2547000000	  41.5600000000	  31.8583000000
F	  48.6128000000	  42.0843000000	  32.9474000000
F	  50.3840000000	  42.2640000000	  31.8217000000
F	  48.5590000000	  41.8538000000	  30.7691000000
N	  47.8500000000	  33.4629000000	  28.7439000000
S	  46.5679000000	  33.0724000000	  27.9605000000
O	  46.7567000000	  32.5601000000	  26.5962000000
O	  45.5344000000	  32.4679000000	  28.8217000000
C	  45.9128000000	  34.6907000000	  27.5825000000
F	  44.6805000000	  34.6259000000	  27.1940000000
F	  46.6289000000	  35.3718000000	  26.6749000000
F	  45.8998000000	  35.4843000000	  28.6440000000
S	  48.4408000000	  32.6887000000	  29.9559000000
O	  47.6892000000	  31.6158000000	  30.4671000000
O	  48.9971000000	  33.5146000000	  30.9860000000
C	  49.7902000000	  31.7440000000	  29.2193000000
F	  50.7463000000	  32.4712000000	  28.7031000000
F	  50.3552000000	  30.9811000000	  30.1368000000
F	  49.4857000000	  30.8529000000	  28.2623000000
