76

Li	  37.8208000000	  34.6143000000	  47.8401000000
O	  40.8487000000	  32.0789000000	  47.8155000000
O	  38.8626000000	  32.9760000000	  48.1994000000
C	  40.3555000000	  31.6158000000	  49.0945000000
C	  39.0473000000	  32.3682000000	  49.4888000000
C	  39.6263000000	  32.4550000000	  47.3003000000
H	  40.2587000000	  30.5055000000	  49.0647000000
H	  41.1435000000	  31.7710000000	  49.8154000000
H	  38.2801000000	  31.7817000000	  49.8197000000
H	  39.0816000000	  33.1096000000	  50.3244000000
H	  39.8377000000	  33.1554000000	  46.4675000000
H	  39.0078000000	  31.5754000000	  46.8563000000
S	  36.8325000000	  35.9189000000	  51.0440000000
F	  37.1734000000	  33.5484000000	  52.1351000000
F	  38.7068000000	  35.0348000000	  52.5940000000
F	  36.7977000000	  35.1313000000	  53.5182000000
O	  37.5585000000	  37.1756000000	  51.2430000000
O	  37.0933000000	  35.2963000000	  49.7516000000
N	  35.1930000000	  36.1803000000	  51.2922000000
C	  34.7705000000	  37.1804000000	  52.3038000000
C	  34.2389000000	  35.1321000000	  50.8136000000
C	  33.4726000000	  37.8782000000	  51.9442000000
C	  33.6287000000	  35.4529000000	  49.4595000000
C	  37.4366000000	  34.8284000000	  52.3808000000
C	  32.9540000000	  38.8800000000	  52.9890000000
C	  33.1825000000	  34.2154000000	  48.7143000000
H	  34.6475000000	  36.6747000000	  53.1989000000
H	  35.6110000000	  37.8079000000	  52.4214000000
H	  34.8709000000	  34.2145000000	  50.7455000000
H	  33.4930000000	  34.8783000000	  51.6507000000
H	  33.5670000000	  38.4856000000	  51.0513000000
H	  32.6789000000	  37.2096000000	  51.7742000000
H	  32.8832000000	  36.2993000000	  49.4766000000
H	  34.4236000000	  35.8642000000	  48.8758000000
H	  33.7276000000	  39.5601000000	  53.2385000000
H	  32.0273000000	  39.3421000000	  52.6545000000
H	  32.7162000000	  38.2449000000	  53.8710000000
H	  32.9255000000	  34.5989000000	  47.7175000000
H	  33.8667000000	  33.4108000000	  48.6382000000
H	  32.2255000000	  33.8996000000	  49.0995000000
S	  40.3616000000	  36.5539000000	  48.8814000000
F	  41.7304000000	  34.3740000000	  49.3031000000
F	  42.8646000000	  35.9510000000	  48.5159000000
F	  42.2481000000	  36.0933000000	  50.6126000000
O	  39.4245000000	  35.6129000000	  48.2736000000
O	  39.9216000000	  37.3489000000	  50.0552000000
N	  40.8719000000	  37.7096000000	  47.6406000000
C	  41.2777000000	  37.2336000000	  46.3159000000
C	  41.3213000000	  39.0361000000	  48.0092000000
C	  40.7247000000	  38.0841000000	  45.1632000000
C	  42.8366000000	  39.1882000000	  47.8467000000
C	  41.9343000000	  35.6892000000	  49.3869000000
C	  40.7870000000	  37.5959000000	  43.7148000000
C	  43.2722000000	  40.5710000000	  48.2536000000
H	  42.3769000000	  37.1819000000	  46.3435000000
H	  40.9387000000	  36.2181000000	  46.1197000000
H	  40.8231000000	  39.7017000000	  47.2850000000
H	  41.0764000000	  39.3795000000	  49.0361000000
H	  39.6368000000	  38.2316000000	  45.3183000000
H	  41.2304000000	  39.0476000000	  45.1807000000
H	  43.2442000000	  38.4158000000	  48.4362000000
H	  43.0639000000	  39.0416000000	  46.7960000000
H	  41.7826000000	  37.7723000000	  43.3167000000
H	  40.4492000000	  36.5549000000	  43.5301000000
H	  40.2486000000	  38.2522000000	  42.9955000000
H	  43.3920000000	  40.6972000000	  49.3156000000
H	  44.1678000000	  40.7419000000	  47.7942000000
H	  42.6311000000	  41.3191000000	  47.8182000000
S	  36.2585000000	  33.9890000000	  46.6386000000
S	  37.4604000000	  35.6452000000	  46.0103000000
S	  36.2920000000	  37.4560000000	  45.9160000000
S	  35.8625000000	  41.8292000000	  47.9914000000
S	  36.7335000000	  43.5744000000	  48.9891000000
S	  35.6330000000	  44.0131000000	  50.7008000000
S	  37.2092000000	  40.2196000000	  47.9676000000
S	  36.0655000000	  38.3614000000	  47.7919000000
