56

Li	  32.8645000000	  44.3589000000	  28.9723000000
O	  31.4123000000	  44.8986000000	  27.9509000000
O	  29.9171000000	  45.5269000000	  26.3733000000
C	  30.1407000000	  44.5247000000	  28.4267000000
C	  29.2158000000	  45.2753000000	  27.5365000000
C	  31.1667000000	  45.0162000000	  26.5726000000
H	  30.1513000000	  43.4956000000	  28.2889000000
H	  30.1448000000	  44.8208000000	  29.4516000000
H	  28.2906000000	  44.7558000000	  27.3326000000
H	  28.8751000000	  46.1811000000	  28.0581000000
H	  31.8721000000	  45.5116000000	  25.9100000000
H	  31.2147000000	  43.9781000000	  26.1016000000
S	  35.3771000000	  44.2400000000	  26.8828000000
F	  35.6963000000	  46.8602000000	  26.9738000000
F	  37.5492000000	  45.7270000000	  27.5276000000
F	  36.8735000000	  45.8802000000	  25.4356000000
O	  34.2785000000	  44.6118000000	  27.8525000000
O	  35.1084000000	  43.6890000000	  25.5829000000
N	  36.3825000000	  43.1373000000	  27.6822000000
C	  36.4278000000	  43.1566000000	  29.1466000000
C	  37.5411000000	  42.5651000000	  26.9424000000
C	  36.7832000000	  41.7686000000	  29.7172000000
C	  37.1518000000	  41.1527000000	  26.4751000000
C	  36.4836000000	  45.7681000000	  26.7170000000
C	  37.1721000000	  41.6679000000	  31.2137000000
C	  38.3544000000	  40.4152000000	  25.9670000000
H	  37.2768000000	  43.7972000000	  29.3800000000
H	  35.5949000000	  43.5164000000	  29.6811000000
H	  37.5521000000	  43.1476000000	  26.0246000000
H	  38.4190000000	  42.6991000000	  27.5592000000
H	  35.8789000000	  41.1604000000	  29.4438000000
H	  37.5889000000	  41.2576000000	  29.2127000000
H	  36.6683000000	  40.5245000000	  27.2493000000
H	  36.5283000000	  41.2447000000	  25.5957000000
H	  37.8081000000	  42.5158000000	  31.4862000000
H	  36.2633000000	  41.6047000000	  31.8682000000
H	  37.6976000000	  40.6852000000	  31.2466000000
H	  39.1738000000	  41.0263000000	  25.5653000000
H	  38.9676000000	  39.9720000000	  26.8379000000
H	  38.0901000000	  39.5926000000	  25.2276000000
S	  28.7335000000	  49.7370000000	  35.2254000000
S	  30.2495000000	  50.0450000000	  33.8172000000
S	  32.0483000000	  50.5762000000	  34.5630000000
S	  35.4730000000	  46.7136000000	  33.0368000000
S	  35.0849000000	  46.4778000000	  30.9078000000
S	  33.1249000000	  45.8247000000	  30.6189000000
S	  34.9647000000	  48.7412000000	  33.3933000000
S	  33.3013000000	  48.8207000000	  34.6526000000
S	  34.5145000000	  35.2823000000	  20.7570000000
S	  33.3618000000	  35.5461000000	  22.5252000000
S	  32.9395000000	  37.5933000000	  22.8316000000
S	  33.8295000000	  39.9392000000	  27.6217000000
S	  32.9698000000	  41.8184000000	  27.7541000000
S	  32.8907000000	  42.3325000000	  29.8238000000
S	  32.9148000000	  38.6954000000	  26.2274000000
S	  34.0762000000	  38.2125000000	  24.5396000000
