45

Li	  31.2421000000	  42.8360000000	   4.5251700000
S	  34.2625000000	  43.3917000000	   5.3339800000
F	  35.6606000000	  45.4266000000	   4.4183800000
F	  33.5479000000	  46.0022000000	   4.7679500000
F	  34.9166000000	  45.7091000000	   6.4297700000
O	  34.7354000000	  42.9019000000	   6.6350700000
O	  32.9018000000	  43.1533000000	   4.8600800000
N	  35.3234000000	  42.8414000000	   4.1315000000
C	  36.7718000000	  42.8989000000	   4.4743000000
C	  34.9979000000	  43.1208000000	   2.6905100000
C	  37.2425000000	  41.5002000000	   4.8817100000
C	  34.4475000000	  41.8097000000	   2.0460200000
C	  34.6023000000	  45.2580000000	   5.2071700000
C	  38.6565000000	  41.6896000000	   5.4831400000
C	  34.1998000000	  41.9836000000	   0.5631545618
H	  37.4724000000	  43.2588000000	   3.6713400000
H	  37.0157000000	  43.5379000000	   5.2945800000
H	  34.2453000000	  43.9002000000	   2.5613100000
H	  35.8275000000	  43.5753000000	   2.1778600000
H	  36.5579000000	  41.0124000000	   5.6344700000
H	  37.1809000000	  40.6943000000	   4.1605200000
H	  35.1624000000	  40.9966000000	   2.2171400000
H	  33.5824000000	  41.5203000000	   2.6917600000
H	  38.6929000000	  42.4886000000	   6.2544600000
H	  39.0553000000	  40.7751000000	   5.9657900000
H	  39.4789000000	  41.9255000000	   4.7379300000
H	  33.3819000000	  42.6737000000	   0.4187545618
H	  35.0470000000	  42.3074000000	  -0.0307454382
H	  34.0154000000	  41.0993000000	  -0.0194454382
S	  30.2441000000	  44.6122000000	   5.4439000000
S	  29.9306000000	  43.0944000000	   6.8991800000
S	  28.0159000000	  42.4089000000	   6.9038000000
S	  24.8502000000	  44.9107000000	   9.8286200000
S	  24.7390000000	  44.6614000000	  11.9184000000
S	  23.9968000000	  46.3732000000	  12.8801000000
S	  25.1547000000	  43.1015000000	   8.7772200000
S	  27.1670000000	  42.2838000000	   8.8538300000
S	  30.5543000000	  42.8751000000	   2.5011300000
S	  31.4595000000	  44.7518000000	   2.0794800000
S	  31.7340000000	  44.9849000000	   0.0051545618
S	  28.6933000000	  46.8110000000	  -2.9555454382
S	  28.1111000000	  44.8335000000	  -2.8921454382
S	  27.6962000000	  44.2705000000	  -4.9142454382
S	  30.8005000000	  47.2115000000	  -2.7439454382
S	  31.5227000000	  47.0400000000	  -0.7402454382
