42

Li	  52.4352000000	  27.5736000000	  28.1844000000
O	  52.6423000000	  29.4947000000	  27.9657000000
O	  53.8585000000	  31.3430000000	  27.8469000000
C	  52.3360000000	  30.0192000000	  26.7335000000
C	  52.9748000000	  31.4286000000	  26.8158000000
C	  53.1527000000	  30.5557000000	  28.7594000000
H	  52.7741000000	  29.3942000000	  25.9592000000
H	  51.2559000000	  30.0902000000	  26.6607000000
H	  53.4623000000	  31.7892000000	  25.8720000000
H	  52.2415000000	  32.2380000000	  27.0223000000
H	  52.3770000000	  31.1469000000	  29.3220000000
H	  53.8787000000	  30.2394000000	  29.5210000000
O	  54.1669000000	  26.8591000000	  27.9506000000
O	  56.1892000000	  25.9047000000	  28.3262000000
C	  54.7687000000	  27.3462000000	  29.1250000000
C	  56.2485000000	  27.1488000000	  29.0063000000
C	  55.0232000000	  25.8801000000	  27.5114000000
H	  54.4090000000	  28.3096000000	  29.4803000000
H	  54.3897000000	  26.6508000000	  29.9179000000
H	  56.7152000000	  27.9285000000	  28.3610000000
H	  56.6861000000	  27.3606000000	  30.0199000000
H	  54.6103000000	  24.8923000000	  27.5971000000
H	  55.2471000000	  26.0358000000	  26.5086000000
O	  51.2109000000	  27.4162000000	  29.9076000000
O	  49.9310000000	  28.2996000000	  31.5460000000
C	  50.1271000000	  28.1805000000	  29.3096000000
C	  49.7741000000	  29.1241000000	  30.4332000000
C	  51.0976000000	  27.5893000000	  31.2725000000
H	  50.3454000000	  28.6715000000	  28.3172000000
H	  49.3726000000	  27.3862000000	  29.1148000000
H	  50.3254000000	  30.0216000000	  30.5387000000
H	  48.7452000000	  29.4583000000	  30.3446000000
H	  50.9028000000	  26.5801000000	  31.6543000000
H	  52.0324000000	  27.9234000000	  31.7310000000
S	  51.2909000000	  26.1623000000	  26.9731000000
S	  51.7755000000	  25.2167000000	  25.2510000000
S	  52.4475000000	  23.1135000000	  25.5454000000
S	  56.0376000000	  24.5772000000	  22.6110000000
S	  58.0728000000	  24.6703000000	  23.1004000000
S	  58.6344000000	  26.2465000000	  24.4781000000
S	  55.1157000000	  22.8119000000	  23.4665000000
S	  54.5450000000	  22.9137000000	  25.4409000000
