57

Li	  48.9187000000	  26.1138000000	   9.9680400000
S	  46.0299000000	  27.9260000000	  10.3028000000
F	  46.1060000000	  27.7606000000	  12.8104000000
F	  46.0201000000	  29.8167000000	  11.9767000000
F	  44.1746000000	  28.4828000000	  12.0242000000
O	  47.4206000000	  27.3946000000	  10.2785000000
O	  44.9478000000	  26.9933000000	   9.8846400000
N	  45.9684000000	  29.3751000000	   9.3402600000
C	  47.2029000000	  30.1219000000	   9.0403100000
C	  44.6735000000	  29.9074000000	   8.9267200000
C	  47.6908000000	  31.2784000000	   9.9350700000
C	  44.1296000000	  29.2671000000	   7.6707800000
C	  45.5774000000	  28.5388000000	  11.9156000000
C	  48.9275000000	  31.9012000000	   9.3326000000
C	  42.9373000000	  29.9762000000	   7.0112700000
H	  47.9588000000	  29.3760000000	   9.0573600000
H	  47.1451000000	  30.4295000000	   7.9915400000
H	  43.9384000000	  29.7317000000	   9.6875300000
H	  44.7758000000	  30.9686000000	   8.8253600000
H	  46.8521000000	  32.0481000000	  10.0068000000
H	  47.9373000000	  30.9139000000	  10.9273000000
H	  44.9282000000	  29.2678000000	   6.9765800000
H	  43.7542000000	  28.2234000000	   7.9019100000
H	  48.6965000000	  32.0461000000	   8.2856900000
H	  49.2868000000	  32.7164000000	   9.9401600000
H	  49.7742000000	  31.1859000000	   9.4128000000
H	  43.1734000000	  31.0437000000	   6.8420600000
H	  42.7220000000	  29.4976000000	   6.0251200000
H	  42.0225000000	  29.8284000000	   7.5540200000
S	  48.0529000000	  25.1452000000	   6.8943100000
F	  50.4192000000	  24.2309000000	   6.9907100000
F	  48.8837000000	  22.9075000000	   6.2004500000
F	  49.7081000000	  24.5436000000	   5.0389700000
O	  46.7949000000	  24.4169000000	   6.7953900000
O	  48.4077000000	  25.6627000000	   8.2123400000
N	  48.0071000000	  26.5122000000	   5.9665500000
C	  47.3782000000	  26.4147000000	   4.6106500000
C	  49.1153000000	  27.4554000000	   6.1419200000
C	  46.0839000000	  27.2084000000	   4.3138000000
C	  48.7685000000	  28.9213000000	   5.7333100000
C	  49.3614000000	  24.1565000000	   6.2163200000
C	  45.6420000000	  27.0262000000	   2.8648900000
C	  50.0678000000	  29.7312000000	   5.7698700000
H	  48.1083000000	  26.7178000000	   3.8853500000
H	  47.2211000000	  25.3213000000	   4.3462800000
H	  49.5398000000	  27.4117000000	   7.1554800000
H	  49.8763000000	  27.0538000000	   5.4502200000
H	  45.2728000000	  26.8999000000	   4.9044000000
H	  46.1890000000	  28.2824000000	   4.3887900000
H	  48.5403000000	  28.8341000000	   4.6376400000
H	  47.9294000000	  29.3365000000	   6.2748700000
H	  45.2597000000	  26.0336000000	   2.7316700000
H	  44.7566000000	  27.6338000000	   2.6852000000
H	  46.5672000000	  27.1918000000	   2.2955700000
H	  49.8755000000	  30.6867000000	   5.3176800000
H	  50.4321000000	  29.9813000000	   6.7392900000
H	  50.8533000000	  29.3533000000	   5.1598300000
