50

Li	   7.9056200000	  28.0343000000	  27.2359000000
O	   7.6215100000	  24.8931000000	  24.9435000000
O	   7.6550400000	  27.0377000000	  25.6604000000
C	   8.7870400000	  25.5241000000	  24.4785000000
C	   8.4464200000	  26.9688000000	  24.5463000000
C	   7.3638800000	  25.7602000000	  26.0466000000
H	   9.6554000000	  25.4275000000	  25.1278000000
H	   9.1299000000	  25.2521000000	  23.4052000000
H	   9.2659300000	  27.6264000000	  24.7039000000
H	   7.8516000000	  27.2798000000	  23.6730000000
H	   6.3512100000	  25.6599000000	  26.2987000000
H	   7.8893800000	  25.5168000000	  26.9329000000
N	  11.9001000000	  27.2864000000	  28.4815000000
S	  11.3907000000	  25.8011000000	  28.2778000000
O	  11.6702000000	  24.9856000000	  29.4072000000
O	  10.0971000000	  25.7392000000	  27.5966000000
C	  12.5947000000	  25.2508000000	  26.9492000000
F	  12.3957000000	  25.8809000000	  25.8158000000
F	  12.6230000000	  23.9609000000	  26.8182000000
F	  13.8207000000	  25.5968000000	  27.3014000000
S	  10.9945000000	  28.5597000000	  28.6428000000
O	  11.4434000000	  29.3123000000	  29.7907000000
O	   9.5577500000	  28.4077000000	  28.4385000000
C	  11.6294000000	  29.6156000000	  27.3240000000
F	  12.9306000000	  29.7778000000	  27.4485000000
F	  11.4055000000	  29.1646000000	  26.0942000000
F	  11.1346000000	  30.8273000000	  27.4232000000
N	   7.9759400000	  32.1046000000	  25.8215000000
S	   8.9324000000	  33.3360000000	  26.0731000000
O	   8.9491200000	  33.6833000000	  27.4522000000
O	  10.2153000000	  33.3171000000	  25.4155000000
C	   8.0392300000	  34.6511000000	  25.1492000000
F	   7.8825400000	  34.3834000000	  23.8477000000
F	   8.6211000000	  35.8630000000	  25.1584000000
F	   6.8351000000	  34.7918000000	  25.5865000000
S	   8.1881200000	  30.8125000000	  25.0731000000
O	   8.2292700000	  29.6137000000	  25.8796000000
O	   9.0394600000	  30.9292000000	  23.8679000000
C	   6.5023600000	  30.6371000000	  24.3441000000
F	   6.3490100000	  31.4838000000	  23.2736000000
F	   6.1025600000	  29.4526000000	  23.9391000000
F	   5.5965000000	  31.0127000000	  25.1994000000
S	   6.1222600000	  28.6756000000	  28.1411000000
S	   6.3774000000	  27.6029000000	  30.0150000000
S	   4.8144100000	  26.2308000000	  30.1939000000
S	   5.0380600000	  23.0488000000	  26.2527000000
S	   4.6804400000	  24.3374000000	  24.5368000000
S	   5.3247100000	  23.3505000000	  22.6714000000
S	   4.1349000000	  23.7493000000	  27.9508000000
S	   5.4366000000	  24.3412000000	  29.5777000000
