100

Li	  48.2619000000	  14.1114000000	  15.1142000000
S	  46.3578000000	  13.5123000000	  17.5515000000
F	  44.5659000000	  12.4622000000	  15.9247000000
F	  44.8698000000	  11.2972000000	  17.8004000000
F	  43.7076000000	  13.1171000000	  17.7958000000
O	  47.2802000000	  12.7854000000	  18.4590000000
O	  46.9258000000	  13.9704000000	  16.2557000000
N	  45.8063000000	  14.9514000000	  18.3910000000
C	  45.5069000000	  14.9290000000	  19.7869000000
C	  45.1980000000	  15.9584000000	  17.5503000000
C	  46.6520000000	  15.7022000000	  20.4970000000
C	  46.3213000000	  16.9762000000	  17.3895000000
C	  44.7921000000	  12.5168000000	  17.2428000000
C	  46.2196000000	  16.2390000000	  21.8932000000
C	  46.4702000000	  17.4670000000	  15.8440000000
H	  44.5292000000	  15.2243000000	  20.0261000000
H	  45.6097000000	  13.8932000000	  20.2065000000
H	  44.9525000000	  15.5013000000	  16.6295000000
H	  44.2913000000	  16.4039000000	  17.8560000000
H	  47.5849000000	  15.0503000000	  20.6740000000
H	  46.9045000000	  16.5730000000	  19.9413000000
H	  45.9446000000	  17.7858000000	  18.0606000000
H	  47.3067000000	  16.8663000000	  17.7747000000
H	  47.0814000000	  16.4310000000	  22.5189000000
H	  45.5002000000	  17.0584000000	  21.7127000000
H	  45.6709000000	  15.4950000000	  22.4314000000
H	  47.2602000000	  18.2286000000	  15.9391000000
H	  46.6674000000	  16.6152000000	  15.1863000000
H	  45.6616000000	  18.1716000000	  15.4903000000
S	  49.1215000000	  13.8223000000	  11.9186000000
F	  48.6012000000	  14.8194000000	   9.6326000000
F	  48.7588000000	  16.3378000000	  11.1590000000
F	  50.4949000000	  15.4096000000	  10.4537000000
O	  50.3704000000	  13.0555000000	  11.9120000000
O	  48.4865000000	  14.2733000000	  13.1957000000
N	  47.9658000000	  12.7392000000	  11.1723000000
C	  46.6492000000	  13.2900000000	  11.0831000000
C	  48.4604000000	  12.1400000000	   9.9393900000
C	  45.6681000000	  12.3658000000	  11.6839000000
C	  48.7643000000	  10.6567000000	  10.2521000000
C	  49.2535000000	  15.2152000000	  10.7381000000
C	  46.0309000000	  11.8707000000	  13.0950000000
C	  49.3282000000	   9.7949900000	   9.1149600000
H	  46.6493000000	  14.1999000000	  11.7255000000
H	  46.3249000000	  13.7583000000	  10.1237000000
H	  47.6988000000	  12.1570000000	   9.0908300000
H	  49.3170000000	  12.6904000000	   9.5128300000
H	  44.6968000000	  12.8896000000	  11.7978000000
H	  45.4024000000	  11.4919000000	  11.0948000000
H	  49.5285000000	  10.4543000000	  11.0814000000
H	  47.8683000000	  10.2045000000	  10.6738000000
H	  46.1493000000	  12.7152000000	  13.7704000000
H	  45.2675000000	  11.1908000000	  13.4827000000
H	  47.0311000000	  11.3846000000	  13.0876000000
H	  50.2441000000	  10.1996000000	   8.6483000000
H	  49.6603000000	   8.9100500000	   9.5994200000
H	  48.5123000000	   9.5261700000	   8.4647300000
S	  50.3098000000	  11.9063000000	  16.2573000000
F	  49.3102000000	   9.5877600000	  15.9682000000
F	  50.4100000000	  10.3492000000	  14.2205000000
F	  51.5180000000	   9.6251700000	  15.8837000000
O	  49.7332000000	  12.7991000000	  15.2279000000
O	  49.6617000000	  11.8151000000	  17.5926000000
N	  51.9676000000	  12.3492000000	  16.5367000000
C	  52.7251000000	  13.1260000000	  15.4935000000
C	  52.7144000000	  11.6833000000	  17.6674000000
C	  53.2957000000	  12.2993000000	  14.3417000000
C	  53.1725000000	  12.6510000000	  18.7522000000
C	  50.3518000000	  10.2208000000	  15.5477000000
C	  53.9136000000	  13.0048000000	  13.1423000000
C	  53.5941000000	  12.1181000000	  20.1081000000
H	  52.1223000000	  13.9696000000	  15.0665000000
H	  53.5368000000	  13.7608000000	  15.8932000000
H	  52.0004000000	  10.9654000000	  18.1511000000
H	  53.5402000000	  11.1374000000	  17.2355000000
H	  54.1522000000	  11.7663000000	  14.8184000000
H	  52.5866000000	  11.6348000000	  13.9520000000
H	  53.9878000000	  13.2322000000	  18.3685000000
H	  52.3307000000	  13.3548000000	  18.8759000000
H	  54.5388000000	  12.2432000000	  12.6240000000
H	  53.2266000000	  13.5607000000	  12.4849000000
H	  54.5611000000	  13.7314000000	  13.5600000000
H	  54.0740000000	  11.1721000000	  19.9425000000
H	  54.3155000000	  12.8663000000	  20.4820000000
H	  52.8855000000	  11.9123000000	  20.8307000000
N	  49.6932000000	  17.5750000000	  17.2789000000
S	  50.3826000000	  16.5120000000	  16.3675000000
O	  51.7523000000	  16.2126000000	  16.6817000000
O	  49.5486000000	  15.3574000000	  16.1669000000
C	  50.3501000000	  17.3081000000	  14.6752000000
F	  51.1865000000	  18.3753000000	  14.5447000000
F	  49.1265000000	  17.7081000000	  14.4097000000
F	  50.7053000000	  16.4619000000	  13.6763000000
S	  50.4418000000	  18.7063000000	  18.1052000000
O	  51.0396000000	  19.7185000000	  17.2352000000
O	  51.0805000000	  18.2588000000	  19.3128000000
C	  48.9175000000	  19.6939000000	  18.7944000000
F	  48.1395000000	  18.8711000000	  19.4225000000
F	  49.3287000000	  20.5569000000	  19.6844000000
F	  48.2021000000	  20.4117000000	  17.9365000000
