68

Li	  29.4016000000	   3.3735400000	  17.2041000000
O	  29.5562000000	   1.7663400000	  18.4971000000
O	  30.2917000000	   0.1846887294	  19.8735000000
C	  29.0755000000	   0.5685887294	  17.8926000000
C	  29.5719000000	  -0.4913112706	  18.9076000000
C	  30.6529000000	   1.4202800000	  19.2551000000
H	  27.9967000000	   0.4996887294	  17.7771000000
H	  29.6418000000	   0.5022887294	  16.9797000000
H	  28.6922000000	  -0.8748112706	  19.3547000000
H	  30.1038000000	  -1.3855112706	  18.4954000000
H	  31.5775000000	   1.1385800000	  18.6650000000
H	  30.9531000000	   2.1216700000	  20.0669000000
S	  31.1160000000	   5.5643900000	  18.4574000000
F	  33.3494000000	   6.1179900000	  19.8096000000
F	  32.8141000000	   3.9515100000	  19.7102000000
F	  33.4875000000	   4.9685300000	  18.0577000000
O	  31.1931000000	   6.3105200000	  17.1988000000
O	  30.2299000000	   4.4116400000	  18.5329000000
N	  30.6586000000	   6.7313400000	  19.6535000000
C	  30.8762000000	   8.1609300000	  19.3736000000
C	  30.6362000000	   6.3213500000	  21.1165000000
C	  29.6329000000	   8.8524400000	  18.8456000000
C	  29.5954000000	   6.9615300000	  22.0385000000
C	  32.7416000000	   5.1323600000	  19.0891000000
C	  29.8593000000	  10.1114000000	  18.0385000000
C	  29.6935000000	   6.5951600000	  23.5222000000
H	  31.3126000000	   8.5987100000	  20.2568000000
H	  31.6652000000	   8.4445100000	  18.6168000000
H	  30.5722000000	   5.2355000000	  21.2684000000
H	  31.5522000000	   6.6841200000	  21.4520000000
H	  29.1185000000	   8.1608200000	  18.1888000000
H	  28.9270000000	   8.9804200000	  19.6615000000
H	  29.5305000000	   8.0716500000	  21.9735000000
H	  28.6273000000	   6.6064000000	  21.7316000000
H	  28.8789000000	  10.4299000000	  17.8016000000
H	  30.3388000000	  10.8730000000	  18.6891000000
H	  30.4125000000	   9.8683600000	  17.1653000000
H	  28.7840000000	   6.8844500000	  24.0308000000
H	  29.7503000000	   5.4554300000	  23.6047000000
H	  30.5982000000	   6.9834800000	  23.9097000000
S	  30.5447000000	   3.3703300000	  14.2886000000
F	  29.5699000000	   1.2660700000	  13.1500000000
F	  31.3877000000	   2.0186900000	  12.2461000000
F	  31.4955000000	   0.8915887294	  14.0905000000
O	  29.6872000000	   4.3171600000	  13.5474000000
O	  30.3820000000	   3.1502100000	  15.7176000000
N	  32.1260000000	   4.0698200000	  14.1707000000
C	  32.3054000000	   5.4111900000	  13.4889000000
C	  33.1987000000	   3.2987800000	  14.8641000000
C	  32.1402000000	   5.3947400000	  11.9695000000
C	  34.5292000000	   4.0552600000	  15.2304000000
C	  30.7604000000	   1.8186200000	  13.3739000000
C	  32.2747000000	   6.7429200000	  11.2447000000
C	  35.5209000000	   3.2115600000	  15.9852000000
H	  31.5896000000	   6.1352500000	  13.9460000000
H	  33.2911000000	   5.8653800000	  13.7778000000
H	  32.8634000000	   2.8510200000	  15.8485000000
H	  33.4998000000	   2.4276900000	  14.2282000000
H	  32.7494000000	   4.5768800000	  11.4792000000
H	  31.0507000000	   5.0357100000	  11.7093000000
H	  34.9363000000	   4.3463000000	  14.2640000000
H	  34.2631000000	   4.9047800000	  15.8089000000
H	  33.1426000000	   7.3221400000	  11.4902000000
H	  32.2902000000	   6.5560700000	  10.1474000000
H	  31.3943000000	   7.3819700000	  11.3430000000
H	  35.1472000000	   2.8874000000	  16.9111000000
H	  35.6571000000	   2.2761300000	  15.4276000000
H	  36.5463000000	   3.6497800000	  16.2120000000
