44

Li	  45.1236000000	  24.4315000000	  10.3573000000
S	  47.2434000000	  26.8488000000	   9.7638700000
F	  46.0861000000	  28.9939000000	  10.7171000000
F	  46.2881000000	  27.3315000000	  12.1244000000
F	  47.9651000000	  28.6180000000	  11.5408000000
O	  48.6838000000	  26.5876000000	   9.7528800000
O	  46.3515000000	  25.6601000000	   9.9433700000
N	  46.8228000000	  27.6775000000	   8.3616900000
C	  47.8989000000	  28.6018000000	   7.7415400000
C	  45.5031000000	  27.5967000000	   7.7256600000
C	  47.3992000000	  30.0316000000	   7.4977500000
C	  45.5371000000	  27.0822000000	   6.2802100000
C	  46.8646000000	  28.0080000000	  11.1613000000
C	  48.5379000000	  30.8820000000	   7.0206000000
C	  46.1600000000	  25.6554000000	   6.2703200000
H	  48.6605000000	  28.6323000000	   8.3944700000
H	  48.2768000000	  28.1098000000	   6.8268100000
H	  44.8617000000	  26.9390000000	   8.2551100000
H	  45.0755000000	  28.5954000000	   7.7028900000
H	  46.6053000000	  30.1178000000	   6.7514500000
H	  46.9393000000	  30.4636000000	   8.3826300000
H	  44.5702000000	  27.1103000000	   5.8183100000
H	  46.2282000000	  27.7485000000	   5.7261500000
H	  48.7705000000	  30.5335000000	   6.0224900000
H	  48.3025000000	  31.9290000000	   7.0626000000
H	  49.4399000000	  30.6901000000	   7.6482300000
H	  46.4655000000	  25.4455000000	   5.2540300000
H	  47.0621000000	  25.6584000000	   6.8375900000
H	  45.4937000000	  24.8176000000	   6.5990600000
N	  41.4132000000	  26.5479000000	   9.6741500000
S	  42.2023000000	  27.8910000000	  10.1317000000
O	  43.4168000000	  27.5067000000	  10.8008000000
O	  42.2038000000	  28.9613000000	   9.1606600000
C	  41.1545000000	  28.5166000000	  11.4436000000
F	  41.6771000000	  29.4886000000	  12.2673000000
F	  40.8153000000	  27.5411000000	  12.2270000000
F	  39.8619000000	  28.8777000000	  10.9925000000
S	  42.0173000000	  25.1938000000	   9.2767200000
O	  41.2586000000	  24.0734000000	   9.7570500000
O	  43.4560000000	  25.0567000000	   9.3759300000
C	  41.6641000000	  25.0848000000	   7.4516800000
F	  42.1561000000	  26.1289000000	   6.7662500000
F	  42.2162000000	  24.0390000000	   6.8192200000
F	  40.3729000000	  25.1554000000	   7.1794400000
