56

Li	  37.9644000000	  14.1089000000	  49.3179000000
O	  38.7581000000	  14.3881000000	  51.0213000000
O	  39.7917000000	  13.6460000000	  52.8928000000
C	  39.7085000000	  15.3600000000	  51.4592000000
C	  39.7521000000	  15.0623000000	  52.9591000000
C	  39.0900000000	  13.2559000000	  51.8008000000
H	  40.6741000000	  15.0815000000	  51.0595000000
H	  39.4160000000	  16.3341000000	  51.1258000000
H	  40.5652000000	  15.4793000000	  53.5384000000
H	  38.8128000000	  15.3962000000	  53.3778000000
H	  38.1162000000	  12.9005000000	  52.2136000000
H	  39.6153000000	  12.4658000000	  51.2467000000
S	  39.9732000000	  13.9707000000	  46.8291000000
F	  41.2337000000	  12.1824000000	  48.4292000000
F	  40.7105000000	  11.4470000000	  46.4153000000
F	  42.3200000000	  12.8486000000	  46.6541000000
O	  39.0744000000	  13.7098000000	  45.6938000000
O	  39.3603000000	  14.4051000000	  48.1006000000
N	  40.8499000000	  15.4275000000	  46.3362000000
C	  41.2806000000	  15.6559000000	  44.9181000000
C	  41.4255000000	  16.3394000000	  47.3465000000
C	  42.8265000000	  15.4991000000	  44.7893000000
C	  40.7704000000	  17.7517000000	  47.2166000000
C	  41.1434000000	  12.5090000000	  47.0973000000
C	  43.1114000000	  15.2486000000	  43.2722000000
C	  41.3041000000	  18.6800000000	  48.3065000000
H	  40.7425000000	  14.9897000000	  44.2809000000
H	  40.8563000000	  16.6036000000	  44.5922000000
H	  41.4224000000	  15.9188000000	  48.2950000000
H	  42.4387000000	  16.4008000000	  47.1654000000
H	  43.3162000000	  16.3496000000	  45.1053000000
H	  43.2263000000	  14.6189000000	  45.2840000000
H	  40.8082000000	  18.1973000000	  46.2767000000
H	  39.6860000000	  17.5796000000	  47.2914000000
H	  44.1712000000	  15.2394000000	  43.0717000000
H	  42.8951000000	  14.2101000000	  43.0488000000
H	  42.5357000000	  15.8773000000	  42.5913000000
H	  40.9727000000	  18.4203000000	  49.3546000000
H	  42.3903000000	  18.7412000000	  48.2124000000
H	  40.8915000000	  19.6811000000	  48.0592000000
S	  43.2008000000	   6.4171000000	  56.6066000000
S	  41.2524000000	   7.0832500000	  55.8937000000
S	  41.5479000000	   8.3375000000	  54.2507000000
S	  38.7162000000	   9.3463100000	  50.4938000000
S	  37.0508000000	  10.6163000000	  49.9937000000
S	  37.6704000000	  12.0431000000	  48.5890000000
S	  38.5597000000	   8.6920700000	  52.5411000000
S	  39.9354000000	   9.6195500000	  53.7533000000
S	  36.2259000000	  15.4132000000	  49.3538000000
S	  37.2755000000	  16.7927000000	  48.1625000000
S	  35.9476000000	  18.1399000000	  47.2722000000
S	  33.9301000000	  14.9230000000	  44.1692000000
S	  34.2478000000	  13.6017000000	  45.8031000000
S	  36.1296000000	  12.6116000000	  45.5578000000
S	  33.7288000000	  16.8238000000	  44.9037000000
S	  35.5913000000	  17.7986000000	  45.1813000000
