20

Li	  43.1741000000	   1.5236300000	  22.2824000000
O	  41.9126000000	   2.0726200000	  23.6951000000
O	  40.2102000000	   3.2414500000	  24.5725000000
C	  42.4053000000	   2.8519900000	  24.7785000000
C	  41.2330000000	   3.3383800000	  25.5344000000
C	  40.5249000000	   2.1351800000	  23.7933000000
H	  43.1595000000	   2.3435800000	  25.3768000000
H	  42.8434000000	   3.6594800000	  24.2680000000
H	  40.9591000000	   2.5543200000	  26.2878000000
H	  41.4327000000	   4.3224700000	  25.9284000000
H	  40.0390000000	   2.3282200000	  22.9239000000
H	  40.3012000000	   1.1246300000	  24.2364000000
S	  44.9526000000	   2.3463900000	  22.6187000000
S	  45.2484000000	   0.3287887294	  23.1112000000
S	  43.5390000000	  -0.6051112706	  23.9435000000
S	  40.6115000000	  -0.9259112706	  20.0828000000
S	  40.5869000000	   1.1351700000	  20.0872000000
S	  42.4524000000	   2.0561600000	  20.2921000000
S	  40.6957000000	  -1.6973112706	  22.0715000000
S	  42.6691000000	  -2.1138112706	  22.6389000000
