63

Li	  54.5380000000	  13.1969000000	  55.5925000000
O	  53.0720000000	  12.5040000000	  56.6408000000
O	  51.0348000000	  12.4895000000	  57.7158000000
C	  53.1404000000	  11.4845000000	  57.6408000000
C	  51.6807000000	  11.2156000000	  57.8417000000
C	  51.8399000000	  13.1899000000	  56.8379000000
H	  53.6556000000	  10.5895000000	  57.3609000000
H	  53.4872000000	  11.7280000000	  58.6089000000
H	  51.3239000000	  10.7503000000	  56.9257000000
H	  51.4979000000	  10.6259000000	  58.6951000000
H	  52.0563000000	  14.1877000000	  57.3047000000
H	  51.2533000000	  13.2602000000	  55.8534000000
S	  56.8564000000	  14.3103000000	  57.6202000000
F	  56.4527000000	  16.4221000000	  56.2611000000
F	  58.5718000000	  16.1649000000	  56.9551000000
F	  57.7937000000	  14.9003000000	  55.3056000000
O	  55.8124000000	  13.4458000000	  56.9540000000
O	  58.0546000000	  13.7165000000	  58.2434000000
N	  56.0832000000	  15.3506000000	  58.7801000000
C	  54.6426000000	  15.7965000000	  58.5462000000
C	  56.9240000000	  15.9476000000	  59.8596454382
C	  53.7628000000	  15.6179000000	  59.7598154382
C	  56.9738000000	  17.5311000000	  59.8037654382
C	  57.4427000000	  15.5414000000	  56.4445000000
C	  53.7249000000	  14.1569000000	  60.1986454382
C	  57.9306000000	  18.1411000000	  60.8816154382
H	  54.5764000000	  16.8647000000	  58.2165000000
H	  54.2272000000	  15.1623000000	  57.7907000000
H	  56.7307000000	  15.5605000000	  60.8456554382
H	  57.9842000000	  15.7007000000	  59.6686454382
H	  54.1914000000	  16.2515000000	  60.5258154382
H	  52.7491000000	  15.9114000000	  59.5938954382
H	  57.2355000000	  17.9925000000	  58.8690000000
H	  55.9193000000	  17.8586000000	  59.9588854382
H	  52.9303000000	  13.7011000000	  59.6909354382
H	  54.5277000000	  13.5958000000	  59.8585754382
H	  53.4870000000	  14.1887000000	  61.2345954382
H	  57.7268000000	  19.2357000000	  61.0027954382
H	  57.7252000000	  17.6370000000	  61.8155554382
H	  59.0083954382	  18.0453000000	  60.6998854382
N	  53.1216000000	   9.7737300000	  53.8366000000
S	  52.0626000000	  10.8337000000	  53.3229000000
O	  50.9634000000	  10.8265000000	  54.2626000000
O	  52.6660000000	  12.0681000000	  52.8580000000
C	  51.5832000000	   9.8749200000	  51.8442000000
F	  50.8490000000	  10.5643000000	  51.1011000000
F	  50.9025000000	   8.7688400000	  52.0911000000
F	  52.6145000000	   9.5531100000	  51.0200000000
S	  54.6571000000	   9.9741300000	  54.3091000000
O	  55.2312000000	   8.7950200000	  54.9398000000
O	  54.8766000000	  11.2482000000	  54.9699000000
C	  55.6396000000	   9.9601700000	  52.7204000000
F	  56.8088000000	  10.5149000000	  52.8715000000
F	  55.8779000000	   8.7405300000	  52.3134000000
F	  55.0089000000	  10.6299000000	  51.8062000000
S	  54.4309000000	  15.1953000000	  54.7408000000
S	  54.8895000000	  14.4493000000	  52.8811000000
S	  56.9368000000	  14.7238000000	  52.4954000000
S	  56.6938000000	  16.7066000000	  48.1961000000
S	  57.5000000000	  15.8385000000	  46.4568000000
S	  56.6257000000	  13.9528000000	  45.9203000000
S	  58.0480000000	  16.7138000000	  49.8210000000
S	  57.2062000000	  16.6565000000	  51.7964000000
