20

Li	  40.9757000000	   2.5612700000	  23.5664000000
O	  42.5211000000	   2.4594000000	  24.8387000000
O	  43.5412000000	   2.3254500000	  26.8371000000
C	  43.6029000000	   3.3524700000	  24.7596000000
C	  43.8577000000	   3.6103400000	  26.2751000000
C	  42.7519000000	   1.6232200000	  25.9621000000
H	  44.4148000000	   2.7252300000	  24.3275000000
H	  43.4690000000	   4.2490500000	  24.1955000000
H	  44.8664000000	   3.9942500000	  26.4799000000
H	  43.1667000000	   4.2994800000	  26.6950000000
H	  41.7427000000	   1.4088400000	  26.3775000000
H	  43.2577000000	   0.7448887294	  25.4447000000
S	  39.5640000000	   4.1415900000	  23.1200000000
S	  39.4541000000	   4.2723100000	  25.1748000000
S	  37.9095000000	   3.0131200000	  25.8791000000
S	  40.7141000000	  -0.1646112706	  23.8428000000
S	  40.6285000000	   0.6117887294	  21.9178000000
S	  42.1133000000	   2.1608600000	  21.5161000000
S	  38.9188000000	  -0.0837112706	  24.9127000000
S	  39.0217000000	   1.2215700000	  26.5135000000
