76

Li	   9.2663500000	  25.1052000000	  34.4392000000
O	   9.7263000000	  26.8508000000	  34.4036000000
O	   9.3390500000	  28.5671000000	  33.0557000000
C	   9.1535500000	  27.8806000000	  35.2780000000
C	   9.0569600000	  29.0856000000	  34.3147000000
C	  10.2472000000	  27.5771000000	  33.3322000000
H	   8.1879500000	  27.6111000000	  35.5778000000
H	   9.8384300000	  28.1247000000	  36.1311000000
H	   8.1303400000	  29.5602000000	  34.3090000000
H	   9.8900900000	  29.7688000000	  34.4846000000
H	  11.2945000000	  27.9103000000	  33.4649000000
H	  10.4207000000	  26.8545000000	  32.5020000000
S	   7.4829900000	  25.2938000000	  31.2865000000
F	   8.0983200000	  26.0387000000	  28.9338000000
F	   7.7081200000	  27.6508000000	  30.1887000000
F	   9.6914400000	  26.4813000000	  30.3333000000
O	   7.3376400000	  23.9930000000	  30.6288000000
O	   8.2586700000	  25.3350000000	  32.5004000000
N	   5.8427800000	  25.7802000000	  31.6060000000
C	   4.9006800000	  25.7398000000	  30.4765000000
C	   5.6348900000	  26.7775000000	  32.6841000000
C	   3.3704500000	  25.8541000000	  30.8676000000
C	   5.1684000000	  26.1817000000	  34.0688000000
C	   8.3377000000	  26.4650000000	  30.1305000000
C	   2.4495000000	  25.7051000000	  29.5747000000
C	   5.0388100000	  27.2394000000	  35.1900000000
H	   5.1558500000	  26.4104000000	  29.6398000000
H	   4.9628300000	  24.7739000000	  29.9665000000
H	   6.5764200000	  27.2991000000	  32.9144000000
H	   5.0184100000	  27.5269000000	  32.2595000000
H	   3.1200200000	  24.9793000000	  31.5391000000
H	   3.1031500000	  26.7410000000	  31.4010000000
H	   4.1119100000	  25.7534000000	  34.1599000000
H	   5.8173400000	  25.3490000000	  34.3347000000
H	   2.9738400000	  26.2900000000	  28.7932000000
H	   2.5052000000	  24.7058000000	  29.2441000000
H	   1.3487600000	  25.9756000000	  29.6669000000
H	   4.2484500000	  27.9678000000	  35.0477000000
H	   4.9276000000	  26.8779000000	  36.1886000000
H	   5.8499000000	  27.9371000000	  35.1329000000
S	  10.5218000000	  22.7871000000	  32.6788000000
F	  13.0476000000	  22.9688000000	  32.5651000000
F	  12.2283000000	  21.6276000000	  31.1260000000
F	  12.0516000000	  23.7773000000	  30.8461000000
O	  10.4760000000	  23.8873000000	  33.6785000000
O	   9.3784300000	  22.5541000000	  31.7308000000
N	  10.7521000000	  21.3212000000	  33.5358000000
C	  11.4631000000	  21.4723000000	  34.8043000000
C	   9.7327500000	  20.2435000000	  33.4071000000
C	  12.2265000000	  20.1666000000	  35.1818000000
C	   8.7158400000	  20.1853000000	  34.5718000000
C	  12.0751000000	  22.7827000000	  31.7369000000
C	  13.1005000000	  19.5941000000	  34.0748000000
C	   7.6016000000	  19.2006000000	  34.3825000000
H	  12.1219000000	  22.3046000000	  34.8806000000
H	  10.7804000000	  21.7553000000	  35.5364000000
H	   9.3164900000	  20.3107000000	  32.4558000000
H	  10.2387000000	  19.2637000000	  33.3032000000
H	  12.7847000000	  20.3914000000	  36.0790000000
H	  11.4294000000	  19.4457000000	  35.5616000000
H	   9.2428600000	  19.9178000000	  35.4644000000
H	   8.2732400000	  21.2218000000	  34.7153000000
H	  12.4971000000	  19.2305000000	  33.2276000000
H	  13.8902000000	  20.1724000000	  33.7205000000
H	  13.5956000000	  18.6595000000	  34.3799000000
H	   7.9682500000	  18.1968000000	  34.6799000000
H	   6.8006600000	  19.4189000000	  35.1269000000
H	   7.0656700000	  19.1681000000	  33.3867000000
S	   8.0004400000	  23.8325000000	  35.5128000000
S	   9.4258500000	  23.7058000000	  37.0592000000
S	  10.8202000000	  25.3372000000	  37.1331000000
S	  14.8518000000	  25.4431000000	  33.7058000000
S	  15.9732000000	  27.2103000000	  33.6145000000
S	  17.4668000000	  27.2933000000	  35.2226000000
S	  12.9303000000	  25.6464000000	  34.5739000000
S	  12.7022000000	  24.9562000000	  36.5063000000
