31

Li	  26.8182000000	  25.8646000000	  58.3202000000
O	  29.3575000000	  23.8179000000	  60.6466054382
O	  27.9295000000	  25.4189000000	  59.9726754382
C	  29.8722000000	  25.0489000000	  61.1557754382
C	  29.1280000000	  26.0971000000	  60.4107854382
C	  27.9780000000	  24.1019000000	  60.2693454382
H	  29.5839000000	  25.1176000000	  62.1519454382
H	  30.9678000000	  25.0678000000	  61.0759654382
H	  29.0369000000	  26.9839000000	  61.0566754382
H	  29.7608000000	  26.3137000000	  59.5519654382
H	  27.6484000000	  23.5090000000	  59.4796754382
H	  27.2456000000	  23.9951000000	  61.0850054382
O	  27.5203000000	  27.2522000000	  57.2917000000
O	  27.3466000000	  28.4776000000	  55.4363000000
C	  28.7956000000	  27.7920000000	  57.0783000000
C	  28.6358000000	  28.8467000000	  55.9599000000
C	  26.9800000000	  27.3248000000	  56.0337000000
H	  29.2462000000	  28.2905000000	  57.9809000000
H	  29.4771000000	  27.0223000000	  56.6480000000
H	  28.4910000000	  29.8417000000	  56.2931000000
H	  29.4930000000	  28.9146000000	  55.2424000000
H	  27.3515000000	  26.4802000000	  55.3893000000
H	  25.8785000000	  27.2933000000	  56.0791000000
S	  27.4612000000	  34.2778000000	  60.3453354382
S	  28.3933000000	  32.6597000000	  61.2270254382
S	  28.1578000000	  30.8165000000	  60.1633454382
S	  25.0761000000	  26.8652000000	  59.7990354382
S	  24.3028000000	  25.7410000000	  58.2020000000
S	  25.7304000000	  24.4566000000	  57.3225000000
S	  25.4927000000	  28.8168000000	  59.2192954382
S	  26.4950000000	  29.6841000000	  60.8532554382
