115

Li	  11.6691000000	  54.9187000000	  35.6643000000
S	  10.0096000000	  55.5772000000	  38.4515000000
F	   9.5821100000	  54.0895000000	  40.5689000000
F	  11.6020000000	  54.0314000000	  39.8815000000
F	  10.8762000000	  55.7601000000	  40.8457000000
O	  10.1649000000	  57.0496000000	  38.4401000000
O	  10.5923000000	  54.8915000000	  37.2624000000
N	   8.2515800000	  55.2070000000	  38.3433000000
C	   7.2439300000	  55.9174000000	  39.1846000000
C	   7.8224200000	  53.8620000000	  37.8080000000
C	   6.6700000000	  57.0751000000	  38.3944000000
C	   6.8112900000	  53.9103000000	  36.6487000000
C	  10.5286000000	  54.7876000000	  40.1011000000
C	   5.3364200000	  57.4267000000	  39.1284000000
C	   6.2501800000	  52.5002000000	  36.4176000000
H	   6.4631600000	  55.2282000000	  39.6380000000
H	   7.6770900000	  56.4033000000	  40.0388000000
H	   8.7352100000	  53.2768000000	  37.5070000000
H	   7.5169600000	  53.2234000000	  38.6391000000
H	   7.3576000000	  57.9401000000	  38.4043000000
H	   6.4231400000	  56.6819000000	  37.4052000000
H	   6.0037400000	  54.6596000000	  36.8170000000
H	   7.3704200000	  54.3149000000	  35.8152000000
H	   4.8095500000	  58.2761000000	  38.6588000000
H	   4.6045900000	  56.5855000000	  39.1333000000
H	   5.5885200000	  57.6966000000	  40.1421000000
H	   5.7237300000	  51.9519000000	  37.2791000000
H	   5.5550300000	  52.7683000000	  35.6295000000
H	   7.0604500000	  51.8979000000	  36.0953000000
S	  13.2722000000	  52.1747000000	  35.2251000000
F	  15.5578000000	  53.0801000000	  34.6363000000
F	  14.9658000000	  53.3649000000	  36.7040000000
F	  15.6684000000	  51.3766000000	  36.0032000000
O	  12.4010000000	  53.2244000000	  35.7777000000
O	  13.2208000000	  51.9616000000	  33.7627000000
N	  12.7568000000	  50.7616000000	  36.0836000000
C	  12.7343000000	  50.8188000000	  37.5154000000
C	  13.1630000000	  49.4566000000	  35.4883000000
C	  11.3781000000	  50.2573000000	  37.8999000000
C	  11.9594000000	  48.9790000000	  34.6214000000
C	  14.9935000000	  52.5295000000	  35.6556000000
C	  10.1552000000	  50.9523000000	  37.2681000000
C	  12.3896000000	  47.9174000000	  33.5649000000
H	  13.5455000000	  50.2285000000	  37.9510000000
H	  12.9397000000	  51.8655000000	  37.8171000000
H	  14.0167000000	  49.6861000000	  34.8547000000
H	  13.5391000000	  48.7327000000	  36.2100000000
H	  11.3360000000	  49.1510000000	  37.7416000000
H	  11.3014000000	  50.2975000000	  39.0370000000
H	  11.2170000000	  48.6118000000	  35.2858000000
H	  11.6660000000	  49.8732000000	  34.0817000000
H	  10.4367000000	  51.9894000000	  37.1396000000
H	   9.8665800000	  50.5094000000	  36.2588000000
H	   9.3254900000	  50.8141000000	  37.9384000000
H	  11.5720000000	  47.3903000000	  33.0781000000
H	  13.0309000000	  48.3078000000	  32.8459000000
H	  12.9102000000	  47.0948000000	  33.9441000000
S	  13.3522000000	  54.9976000000	  32.4721000000
F	  11.2386000000	  55.7915000000	  31.1649000000
F	  12.1941000000	  57.3233000000	  32.3495000000
F	  13.0603000000	  56.6842000000	  30.4613000000
O	  12.9176000000	  54.8993000000	  33.8777000000
O	  13.4800000000	  53.7893000000	  31.6256000000
N	  14.9456000000	  55.6789000000	  32.4672000000
C	  15.3498000000	  56.5412000000	  33.6092000000
C	  15.9906000000	  55.2836000000	  31.5613000000
C	  16.1729000000	  57.7674000000	  33.2651000000
C	  15.7020000000	  55.7291000000	  30.1136000000
C	  12.3939000000	  56.2824000000	  31.5681000000
C	  15.4458000000	  58.7963000000	  32.4019000000
C	  16.9504000000	  55.6102000000	  29.1980000000
H	  14.4372000000	  56.9178000000	  34.0250000000
H	  15.7567000000	  55.9318000000	  34.4209000000
H	  16.9634000000	  55.4992000000	  31.9883000000
H	  16.0211000000	  54.2079000000	  31.5918000000
H	  16.3211000000	  58.1566000000	  34.2735000000
H	  17.1890000000	  57.4887000000	  32.8601000000
H	  14.9725000000	  55.1626000000	  29.5682000000
H	  15.4124000000	  56.8244000000	  30.0129000000
H	  14.6408000000	  59.2641212706	  32.9759000000
H	  16.0731000000	  59.5965712706	  32.3655000000
H	  15.1596000000	  58.4597000000	  31.4114000000
H	  17.7665000000	  56.2242000000	  29.6044000000
H	  17.3576000000	  54.6041000000	  29.3050000000
H	  16.7742000000	  55.9312000000	  28.1511000000
N	  13.1031000000	  57.9957000000	  37.8895000000
S	  12.7991000000	  58.7561000000	  39.2627000000
O	  11.4928000000	  59.3995412706	  39.2602000000
O	  13.1711000000	  58.0725000000	  40.4909000000
C	  13.9756000000	  60.2443712706	  39.1563000000
F	  13.8531000000	  60.9698712706	  40.2333000000
F	  13.6486000000	  60.9695212706	  38.1150000000
F	  15.2578000000	  59.9552912706	  39.0216000000
S	  13.6547000000	  56.5859000000	  37.5629000000
O	  13.4058000000	  56.1957000000	  36.2064000000
O	  13.6703000000	  55.5907000000	  38.5895000000
C	  15.4221000000	  56.9753000000	  37.4033000000
F	  15.6683000000	  58.0443000000	  36.6424000000
F	  16.0288000000	  57.3552000000	  38.5526000000
F	  16.1149000000	  55.9742000000	  36.8892000000
N	  10.1938000000	  58.7325000000	  34.3626000000
S	  10.5051000000	  60.0748012706	  35.0692000000
O	   9.8902700000	  61.2145912706	  34.4448000000
O	  10.5595000000	  60.0325212706	  36.5326000000
C	  12.2124000000	  60.2385912706	  34.5510000000
F	  12.7225000000	  61.3398012706	  35.0517000000
F	  12.3160000000	  60.2762712706	  33.2535000000
F	  12.9941000000	  59.2971112706	  34.9452000000
S	   9.4866900000	  57.4895000000	  34.8775000000
O	   8.7354800000	  57.7128000000	  36.0692000000
O	  10.4176000000	  56.4040000000	  34.8561000000
C	   8.2221000000	  57.0507000000	  33.5663000000
F	   8.7733600000	  56.6398000000	  32.4597000000
F	   7.5084500000	  55.9660000000	  33.9878000000
F	   7.3951200000	  57.9895000000	  33.2726000000
