52

Li	  32.2713000000	  27.3321000000	  49.3671000000
S	  30.2060000000	  27.1875000000	  46.8291000000
F	  30.5190000000	  24.7488000000	  46.0557000000
F	  30.9639000000	  26.2697000000	  44.4972000000
F	  32.3301000000	  25.9322000000	  46.1008000000
O	  28.7670000000	  26.9221000000	  47.0282000000
O	  31.1462000000	  27.3744000000	  47.9753000000
N	  30.2759000000	  28.6337000000	  45.8682000000
C	  29.3097000000	  28.8956000000	  44.7862000000
C	  31.6080000000	  29.2471000000	  45.6828000000
C	  27.9709000000	  29.5008000000	  45.3501000000
C	  31.9429000000	  30.3084000000	  46.7790000000
C	  31.0404000000	  25.9379000000	  45.7796000000
C	  28.0286000000	  30.9007000000	  46.0967000000
C	  33.1333000000	  31.2172000000	  46.3807000000
H	  29.7111000000	  29.5183000000	  44.0070000000
H	  29.0962000000	  27.9918000000	  44.3089000000
H	  32.3202000000	  28.4176000000	  45.6509000000
H	  31.6879000000	  29.7558000000	  44.7298000000
H	  27.2262000000	  29.6613000000	  44.5938000000
H	  27.5438000000	  28.8447000000	  46.1485000000
H	  31.0207000000	  30.8141000000	  46.9852000000
H	  32.1637000000	  30.0659000000	  47.7828000000
H	  27.1003000000	  31.2633000000	  46.3942000000
H	  28.8061000000	  30.8878000000	  46.9071000000
H	  28.3942000000	  31.6991000000	  45.3727000000
H	  32.7105000000	  31.8962000000	  45.6008000000
H	  33.3950000000	  31.7084000000	  47.2731000000
H	  34.0691000000	  30.7952000000	  46.0477000000
N	  29.6741000000	  28.6974000000	  50.7961000000
S	  30.9763000000	  29.5898000000	  50.8535000000
O	  32.2052000000	  28.9637000000	  50.4131000000
O	  30.7881000000	  30.9769000000	  50.4125000000
C	  31.2163000000	  29.7845000000	  52.7463000000
F	  30.2634000000	  30.4314000000	  53.4825000000
F	  32.4277000000	  30.3947000000	  52.9322000000
F	  31.4008000000	  28.6138000000	  53.3582000000
S	  28.2825000000	  29.0822000000	  50.2209000000
O	  27.6769000000	  28.0157000000	  49.3823000000
O	  28.1483000000	  30.4338000000	  49.6652000000
C	  27.1404000000	  29.1070000000	  51.5873000000
F	  27.3182000000	  30.1550000000	  52.3639000000
F	  25.9005000000	  29.2142000000	  51.1670000000
F	  27.2784000000	  28.0374000000	  52.3675000000
S	  32.3746000000	  25.7541000000	  50.6830000000
S	  34.0229000000	  25.7363000000	  49.3160000000
S	  34.1803000000	  27.4634000000	  48.0867000000
S	  38.8126000000	  29.8853000000	  47.9761000000
S	  40.3174000000	  30.0494000000	  46.4971000000
S	  41.1234000000	  32.0276000000	  46.3427000000
S	  37.5000000000	  28.2986000000	  47.5834000000
S	  35.7339000000	  28.6990000000	  48.5590000000
