62

Li	  10.1266000000	  27.0071000000	  41.2933000000
O	  12.4758000000	  25.7123000000	  38.7240000000
O	  11.7554000000	  26.3349000000	  40.7572000000
C	  13.1836000000	  26.9398000000	  38.9793000000
C	  12.8173000000	  27.2444000000	  40.4542000000
C	  12.1311000000	  25.2169000000	  39.9655000000
H	  14.2465000000	  26.8237000000	  38.8964000000
H	  12.8645000000	  27.8289000000	  38.3803000000
H	  13.6704000000	  26.9964000000	  41.1031000000
H	  12.5372000000	  28.3017000000	  40.5773000000
H	  11.4000000000	  24.3937000000	  39.9108000000
H	  13.0366000000	  24.7710000000	  40.4470000000
O	   9.1896500000	  26.3015000000	  39.9843000000
O	   8.4181000000	  27.1306000000	  38.0820000000
C	   7.7718200000	  26.1517000000	  39.9827000000
C	   7.2515700000	  26.4860000000	  38.5810000000
C	   9.5279300000	  26.5536000000	  38.6326000000
H	   7.6599900000	  25.0908000000	  40.2060000000
H	   7.3538500000	  26.8513000000	  40.6730000000
H	   7.0395600000	  25.6429000000	  37.9489000000
H	   6.3893500000	  27.1194000000	  38.7928000000
H	  10.3316000000	  27.3176000000	  38.6476000000
H	   9.7414800000	  25.6313000000	  38.1131000000
O	   9.4812400000	  26.1062000000	  43.2426000000
O	  10.3071000000	  24.1748000000	  42.6438000000
C	  10.6573000000	  26.1527000000	  44.0119000000
C	  11.2656000000	  24.7282000000	  43.5284000000
C	   9.1543800000	  24.8088000000	  43.0239000000
H	  11.2243000000	  27.0393000000	  43.9336000000
H	  10.4166000000	  26.0731000000	  45.0361000000
H	  12.2570000000	  24.7500000000	  43.1527000000
H	  11.4868000000	  24.1234000000	  44.4178000000
H	   8.7113500000	  24.3049000000	  43.9293000000
H	   8.4652600000	  24.6823000000	  42.2374000000
S	   9.1902300000	  30.1269000000	  41.3495000000
F	  10.1593000000	  32.0160000000	  39.9393000000
F	  10.5541000000	  32.1415000000	  41.9989000000
F	  11.6248000000	  30.6817000000	  40.7191000000
O	   8.1007000000	  30.3340000000	  40.3860000000
O	   9.8256400000	  28.7841000000	  41.4988000000
N	   8.6689800000	  30.6002000000	  42.9628000000
C	   7.4898900000	  31.4811000000	  43.0808000000
C	   9.4275200000	  30.2283000000	  44.1685000000
C	   6.2880800000	  30.8445000000	  43.8194000000
C	   9.5447800000	  31.3400000000	  45.2137000000
C	  10.4733000000	  31.3123000000	  41.0029000000
C	   6.0438200000	  29.5287000000	  43.2025000000
C	  10.5117000000	  30.9652000000	  46.3454000000
H	   7.8083900000	  32.3873000000	  43.6087000000
H	   7.2004000000	  31.8095000000	  42.1137000000
H	   8.9024000000	  29.3723000000	  44.5807000000
H	  10.3918000000	  29.7727000000	  43.8742000000
H	   6.3211100000	  30.7573000000	  44.8960000000
H	   5.4355000000	  31.5092000000	  43.6373000000
H	  10.0492000000	  32.1297000000	  44.7164000000
H	   8.6487900000	  31.7391000000	  45.7334000000
H	   6.1867000000	  29.4372000000	  42.1700000000
H	   6.7499700000	  28.8518000000	  43.7371000000
H	   5.0266500000	  29.2351000000	  43.3350000000
H	  10.3951000000	  31.7140000000	  47.0845000000
H	  10.3045000000	  30.0379000000	  46.8832000000
H	  11.5433000000	  31.0342000000	  46.0428000000
