35

Li	   8.3801100000	  31.1263000000	  29.1706000000
O	   8.3376500000	  32.3980000000	  27.6406000000
O	   7.9396800000	  33.8843000000	  25.9450000000
C	   7.1502200000	  32.0172000000	  26.9545000000
C	   7.3885700000	  32.6802000000	  25.5351000000
C	   8.7257900000	  33.6732000000	  27.0275000000
H	   7.0015800000	  30.9279000000	  26.8984000000
H	   6.1755200000	  32.4043000000	  27.4305000000
H	   8.1732900000	  32.1474000000	  24.9495000000
H	   6.4762800000	  32.9334000000	  25.0380000000
H	   8.5937000000	  34.4286000000	  27.7654000000
H	   9.8106200000	  33.7159000000	  26.7796000000
N	  11.7352000000	  33.3946000000	  31.0205000000
S	  11.3826000000	  34.6356000000	  30.1399000000
O	  11.2289000000	  34.2868000000	  28.7406000000
O	  10.4510000000	  35.6021000000	  30.7373000000
C	  13.0056000000	  35.5079000000	  29.9627000000
F	  13.9619000000	  34.7235000000	  29.4583000000
F	  13.4313000000	  35.8848000000	  31.1366000000
F	  12.8425000000	  36.6174000000	  29.1843000000
S	  10.8806000000	  32.1004000000	  31.2677000000
O	  11.7272000000	  30.9911000000	  31.6114000000
O	   9.7186100000	  31.9317000000	  30.4571000000
C	  10.0959000000	  32.5473000000	  32.8501000000
F	   9.1930000000	  31.6754000000	  33.2082000000
F	  10.9647000000	  32.7319000000	  33.8522000000
F	   9.4701600000	  33.6907000000	  32.6170000000
S	   6.4628500000	  30.8580000000	  30.4994000000
S	   5.0133000000	  29.5363000000	  29.7689000000
S	   4.3540100000	  29.6619000000	  27.7226000000
S	   8.2074700000	  27.5662000000	  25.6926000000
S	   9.3000000000	  29.3415000000	  26.2123000000
S	   9.6429100000	  29.5377000000	  28.2846000000
S	   6.2200800000	  28.0065000000	  25.0836000000
S	   4.7816700000	  27.8824000000	  26.6005000000
