87

Li	  26.0261000000	  57.9399000000	  53.4029000000
S	  25.7555000000	  61.1473712706	  53.4892000000
F	  23.3133000000	  61.1692012706	  52.6057000000
F	  24.2973000000	  62.9453412706	  52.1024000000
F	  24.8037000000	  61.1130512706	  51.0420000000
O	  25.8304000000	  59.7010912706	  53.4166000000
O	  27.0059000000	  61.8843512706	  53.1217000000
N	  25.1550000000	  61.6688912706	  54.9713000000
C	  24.6897000000	  60.6170312706	  56.0134000000
C	  25.4321000000	  62.9877712706	  55.3594000000
C	  23.8521000000	  61.0479412706	  57.1315000000
C	  26.8388000000	  63.3096612706	  55.8810000000
C	  24.4681000000	  61.6394012706	  52.2041000000
C	  22.4269000000	  61.4213612706	  56.7967000000
C	  27.1446000000	  64.7839712706	  55.9380000000
H	  24.1834000000	  59.8211312706	  55.5385000000
H	  25.6990000000	  60.1321312706	  56.3688000000
H	  25.1008000000	  63.6077212706	  54.5108000000
H	  24.7575000000	  63.2683512706	  56.1290000000
H	  23.7812000000	  60.2668612706	  57.9107000000
H	  24.2865000000	  61.9033112706	  57.7394000000
H	  26.9741000000	  62.8730412706	  56.8397000000
H	  27.5675000000	  62.7030712706	  55.3306000000
H	  21.8159000000	  61.8922412706	  57.5799000000
H	  22.4947000000	  62.2942112706	  56.1797000000
H	  21.9047000000	  60.7341612706	  56.1478000000
H	  26.3093000000	  65.2810912706	  56.4757000000
H	  28.0698000000	  65.0153012706	  56.5095000000
H	  27.2730000000	  65.1636612706	  54.9116000000
S	  28.0589000000	  58.5814000000	  51.0559000000
F	  26.0138000000	  58.1168000000	  49.6586000000
F	  27.1698000000	  59.8311112706	  49.0006000000
F	  27.7814000000	  57.7287000000	  48.5930000000
O	  28.4435000000	  59.9750112706	  51.4715000000
O	  27.2548000000	  57.8110000000	  51.9897000000
N	  29.5081000000	  57.6222000000	  50.8844000000
C	  30.5945000000	  58.2857000000	  50.2349000000
C	  29.4043000000	  56.1099000000	  50.9832000000
C	  32.0135000000	  57.8902000000	  50.7374000000
C	  29.5604000000	  55.6277000000	  52.4416000000
C	  27.2000000000	  58.5669000000	  49.4493000000
C	  33.2014000000	  58.6376000000	  50.1718000000
C	  29.3297000000	  54.1166000000	  52.7440000000
H	  30.6128000000	  58.0704000000	  49.2204000000
H	  30.6314000000	  59.3735412706	  50.3260000000
H	  28.3769000000	  55.8886000000	  50.6399000000
H	  30.0858000000	  55.6657000000	  50.2328000000
H	  32.0511000000	  57.9670000000	  51.8406000000
H	  32.1483000000	  56.8011000000	  50.5868000000
H	  30.5889000000	  55.8636000000	  52.7176000000
H	  29.0679000000	  56.3142000000	  53.1358000000
H	  34.0927000000	  58.2598000000	  50.6389000000
H	  33.3200000000	  58.4399000000	  49.1567000000
H	  33.2480000000	  59.6651412706	  50.3677000000
H	  29.8620000000	  53.7552000000	  53.5976000000
H	  28.3179000000	  53.9000000000	  52.9226000000
H	  29.6084000000	  53.4716000000	  51.9498000000
N	  28.0874000000	  58.8394000000	  57.3896000000
S	  28.2147000000	  60.0930312706	  58.3404000000
O	  29.1798000000	  61.0944012706	  57.9838000000
O	  26.9120000000	  60.5402712706	  58.7172000000
C	  28.9645000000	  59.2559212706	  59.7398854382
F	  29.3742000000	  60.0309012706	  60.7117454382
F	  29.9934000000	  58.4997000000	  59.3911854382
F	  28.1321000000	  58.4141000000	  60.3223854382
S	  28.3187000000	  58.7687000000	  55.8309000000
O	  28.2644000000	  60.0814512706	  55.2590000000
O	  27.4715000000	  57.8329000000	  55.1232000000
C	  30.0925000000	  58.3111000000	  55.5448000000
F	  30.2546000000	  57.0330000000	  55.9090000000
F	  30.4676000000	  58.3956000000	  54.2742000000
F	  30.8815000000	  59.1553712706	  56.1844000000
N	  23.6703000000	  55.1062000000	  54.0947000000
S	  25.1034000000	  54.4961000000	  53.8086000000
O	  26.1518000000	  55.4055000000	  54.0354000000
O	  25.1991000000	  53.1295000000	  54.2545000000
C	  25.0706000000	  54.3271000000	  51.9885000000
F	  25.0734000000	  55.5163000000	  51.4208000000
F	  23.9053000000	  53.7235000000	  51.7026000000
F	  26.0413000000	  53.6442000000	  51.5113000000
S	  23.2283000000	  56.6088000000	  54.3611000000
O	  24.2151000000	  57.6537000000	  54.0949000000
O	  22.4301000000	  56.7799000000	  55.5316000000
C	  22.0528000000	  56.8722000000	  53.0016000000
F	  21.4458000000	  58.0338000000	  53.2203000000
F	  22.6790000000	  57.0191000000	  51.8719000000
F	  21.1955000000	  55.8674000000	  52.9087000000
