45

Li	  22.0010000000	  57.5286000000	  12.5730000000
S	  24.6746000000	  56.3364000000	  10.9624000000
F	  24.4592000000	  54.0683000000	  12.1578000000
F	  23.4213000000	  54.1924000000	  10.2595000000
F	  25.6540000000	  54.0377000000	  10.4155000000
O	  23.5275000000	  56.8942000000	  11.7064000000
O	  26.0005000000	  56.7246000000	  11.4311000000
N	  24.5134000000	  56.8547000000	   9.2925200000
C	  25.4977000000	  56.3925000000	   8.3344300000
C	  23.2052000000	  57.1904000000	   8.6646600000
C	  26.0096000000	  57.3550000000	   7.2876400000
C	  23.0347000000	  58.6668000000	   8.7796300000
C	  24.5073000000	  54.5360000000	  10.9295000000
C	  26.9510000000	  56.7562000000	   6.2755100000
C	  21.5794000000	  59.1960812706	   8.4750900000
H	  26.3369000000	  55.9299000000	   8.9223800000
H	  25.1289000000	  55.4697000000	   7.8092900000
H	  23.1388000000	  56.8426000000	   7.6231600000
H	  22.3911000000	  56.8045000000	   9.2110100000
H	  25.2462000000	  57.7756000000	   6.7603200000
H	  26.3661000000	  58.0741000000	   7.9866600000
H	  23.0906000000	  59.0150612706	   9.8107600000
H	  23.8542000000	  59.1732412706	   8.2563600000
H	  26.6804000000	  55.8894000000	   5.6610800000
H	  27.2593000000	  57.4567000000	   5.4699100000
H	  27.8840000000	  56.4304000000	   6.7786300000
H	  21.1866000000	  58.8106000000	   7.4285900000
H	  20.9021000000	  58.7571000000	   9.1791500000
H	  21.5012000000	  60.3331312706	   8.6212000000
S	  27.9596000000	  57.8742000000	  14.3598000000
S	  28.0554000000	  55.9075000000	  15.0528000000
S	  26.6885000000	  54.6720000000	  14.0330000000
S	  21.8169000000	  54.8517000000	  13.4653000000
S	  20.1627000000	  56.1141000000	  13.6350000000
S	  19.9832000000	  57.5846000000	  12.0605000000
S	  23.3066000000	  55.5985000000	  14.6456000000
S	  24.9010000000	  54.2901000000	  15.1459000000
S	  22.3356000000	  58.9932412706	  14.1848000000
S	  22.9424000000	  60.2632712706	  12.5387000000
S	  24.0875000000	  61.8763712706	  13.3679000000
S	  24.7063000000	  66.3845712706	  15.0152000000
S	  24.3221000000	  68.4596112706	  14.9330000000
S	  26.0299000000	  69.7617112706	  14.8079000000
S	  24.9557000000	  65.4186012706	  13.1319000000
S	  23.3799000000	  63.8660912706	  13.0082000000
