34

Li	  50.5365000000	  26.9715000000	  23.4568000000
O	  53.8463000000	  25.4620000000	  22.2981000000
O	  51.8383000000	  26.4550000000	  22.1622000000
C	  53.9704000000	  26.4817000000	  21.2839000000
C	  52.6798000000	  27.3268000000	  21.3965000000
C	  52.4043000000	  25.2134000000	  22.2295000000
H	  54.9352000000	  26.9948000000	  21.4701000000
H	  54.0548000000	  25.9604000000	  20.3123000000
H	  52.8395000000	  28.2358000000	  21.9633000000
H	  52.2409000000	  27.6187000000	  20.4545000000
H	  52.2563000000	  24.7290000000	  21.2865000000
H	  52.1827000000	  24.6305000000	  23.0865000000
O	  47.4377000000	  25.3404000000	  24.9538000000
O	  49.4821000000	  25.6408000000	  24.0963000000
C	  47.7662000000	  24.1007000000	  24.3010000000
C	  48.9324000000	  24.5285000000	  23.4408000000
C	  48.6936000000	  25.9126000000	  25.1944000000
H	  48.1082000000	  23.3514000000	  25.0323000000
H	  47.0010000000	  23.7128000000	  23.6847000000
H	  49.6310000000	  23.6987000000	  23.2599000000
H	  48.6012000000	  24.8022000000	  22.4734000000
H	  48.5471000000	  27.0054000000	  25.4787000000
H	  49.0503000000	  25.3875000000	  26.0520000000
O	  53.6366000000	  28.2816000000	  25.5578000000
O	  51.6471000000	  27.6173000000	  24.6916000000
C	  53.0363000000	  29.3427000000	  24.9906000000
C	  51.5591000000	  28.9377000000	  25.0758000000
C	  52.8087000000	  27.2247000000	  25.3350000000
H	  53.3005000000	  30.2577000000	  25.4814000000
H	  53.2294000000	  29.4612000000	  23.9486000000
H	  51.1878000000	  29.0776000000	  26.0662000000
H	  50.9603000000	  29.5368000000	  24.3361000000
H	  53.3585000000	  26.5062000000	  24.6948000000
H	  52.6237000000	  26.6266000000	  26.2056000000
