67

Li	  26.8372000000	  33.0625000000	  23.5315000000
O	  28.3350000000	  34.1293000000	  23.8925000000
N	  29.4874000000	  34.9073000000	  22.0950000000
N	  29.9140000000	  35.7917000000	  24.0300000000
C	  30.5287000000	  35.8927000000	  21.7960000000
C	  30.9285000000	  36.3380000000	  23.2187000000
C	  29.1163000000	  34.8888000000	  23.3948000000
C	  28.8127000000	  34.2364000000	  20.9651000000
C	  29.9006000000	  36.1892000000	  25.4093000000
H	  31.3688000000	  35.4992000000	  21.2395000000
H	  30.1107000000	  36.7207000000	  21.1833000000
H	  31.9659000000	  36.0391000000	  23.3293000000
H	  30.8115000000	  37.4624000000	  23.3193000000
H	  27.7996000000	  34.6547000000	  20.9620000000
H	  29.3359000000	  34.4844000000	  20.0358000000
H	  28.7355000000	  33.1800000000	  21.2302000000
H	  30.0123000000	  35.2987000000	  26.0723000000
H	  30.6940000000	  36.8493000000	  25.7564000000
H	  29.0089000000	  36.7085000000	  25.7922000000
O	  26.0404000000	  32.7698000000	  25.2361000000
N	  26.3385000000	  32.9762000000	  27.5656000000
N	  25.0217000000	  31.4753000000	  26.8518000000
C	  26.0922000000	  32.2260000000	  28.8115000000
C	  25.0456000000	  31.2940000000	  28.2853000000
C	  25.8632000000	  32.4342000000	  26.4381000000
C	  27.4259000000	  33.9995000000	  27.5807000000
C	  24.1001000000	  30.5689000000	  26.0483000000
H	  27.0316000000	  31.6926000000	  29.1233000000
H	  25.6639000000	  32.8997000000	  29.5618000000
H	  25.2757000000	  30.2664000000	  28.5620000000
H	  23.9881000000	  31.4401000000	  28.5828000000
H	  27.4604000000	  34.6966000000	  28.4317000000
H	  28.3774000000	  33.4803000000	  27.5391000000
H	  27.3926000000	  34.5789000000	  26.6491000000
H	  24.4775000000	  29.5871000000	  26.2563000000
H	  23.0565000000	  30.6724000000	  26.4128000000
H	  24.0790000000	  30.7951000000	  24.9547000000
N	  23.5398000000	  34.0672000000	  24.1292000000
S	  23.1540000000	  35.1658000000	  25.2042000000
O	  23.7697000000	  34.8606000000	  26.4915000000
O	  23.2267000000	  36.5226000000	  24.7384000000
C	  21.3895000000	  34.8884000000	  25.4527000000
F	  20.8961000000	  35.7590000000	  26.3467000000
F	  21.1626000000	  33.6691000000	  25.9096000000
F	  20.6391000000	  34.9986000000	  24.3839000000
S	  24.1485000000	  34.3894000000	  22.7393000000
O	  25.5414000000	  34.0532000000	  22.5578000000
O	  23.6698000000	  35.6153000000	  22.1048000000
C	  23.3795000000	  33.1196000000	  21.6971000000
F	  23.8873000000	  33.1983000000	  20.4611000000
F	  23.6611000000	  31.9754000000	  22.2867000000
F	  22.0667000000	  33.3261000000	  21.6819000000
N	  27.9333000000	  29.8030000000	  21.5025000000
S	  26.9488000000	  29.8905000000	  22.6487000000
O	  27.1360000000	  29.0545000000	  23.7954000000
O	  26.4488000000	  31.2316000000	  22.8555000000
C	  25.4946000000	  29.0442000000	  21.8810000000
F	  25.8117000000	  27.8135000000	  21.4791000000
F	  25.0281000000	  29.8247000000	  20.9149000000
F	  24.5155000000	  28.8524000000	  22.7805000000
S	  29.4068000000	  30.3249000000	  21.4810000000
O	  29.6876000000	  31.1882000000	  22.5673000000
O	  29.8822000000	  30.7339000000	  20.1369000000
C	  30.5394000000	  28.9396000000	  21.7894000000
F	  30.1792000000	  28.3708000000	  22.9358000000
F	  30.4295000000	  28.0402000000	  20.8220000000
F	  31.8442000000	  29.2275000000	  21.8858000000
