45

Li	  55.1097000000	  38.6252000000	  20.8384000000
O	  52.1079000000	  41.5056000000	  20.7855000000
O	  53.5000000000	  39.6510000000	  20.8537000000
C	  51.2845000000	  40.3297000000	  20.4708000000
C	  52.2183000000	  39.1659000000	  20.3140000000
C	  53.1824000000	  40.9363000000	  21.3998000000
H	  50.6401000000	  40.1727000000	  21.3531000000
H	  50.5841000000	  40.4723000000	  19.6489000000
H	  51.7633000000	  38.2450000000	  20.8255000000
H	  52.4043000000	  38.9511000000	  19.3242000000
H	  53.9822000000	  41.6115000000	  21.5859000000
H	  52.8218000000	  40.7718000000	  22.3680000000
O	  56.2644000000	  38.6666000000	  22.3561000000
N	  55.5864000000	  38.0236000000	  24.4637000000
N	  57.6722000000	  38.2630000000	  24.1012000000
C	  56.1154000000	  37.9973000000	  25.7833000000
C	  57.6332000000	  38.0793000000	  25.5801000000
C	  56.5061000000	  38.3447000000	  23.5064000000
C	  54.1247000000	  38.1182000000	  24.3666000000
C	  59.0178000000	  38.3911000000	  23.4917000000
H	  55.7718000000	  38.8397000000	  26.4348000000
H	  55.9211000000	  37.0383000000	  26.2992000000
H	  58.0820000000	  38.9547000000	  26.0377000000
H	  58.0298000000	  37.1435000000	  25.9983000000
H	  53.7142000000	  39.0947000000	  24.2208000000
H	  53.7610000000	  37.5449000000	  23.4827000000
H	  53.6399000000	  37.7209000000	  25.2483000000
H	  59.0676000000	  38.1660000000	  22.4073000000
H	  59.3939152507	  39.4125000000	  23.6866000000
H	  59.5703322507	  37.5483000000	  24.0205000000
N	  58.3531000000	  40.7556000000	  20.5096000000
S	  57.7129000000	  40.0405000000	  19.2730000000
O	  56.3953000000	  39.5151000000	  19.5147000000
O	  57.9614000000	  40.6458000000	  17.9955000000
C	  58.7837000000	  38.5320000000	  19.1595000000
F	  58.7196000000	  37.7868000000	  20.2566000000
F	  60.0374522507	  38.8836000000	  19.0237000000
F	  58.4338000000	  37.7031000000	  18.1755000000
S	  57.8176000000	  41.8216000000	  21.5395000000
O	  58.2177000000	  41.5018000000	  22.9158000000
O	  56.4861000000	  42.3446000000	  21.2768000000
C	  58.9544000000	  43.2412000000	  21.1513000000
F	  58.7609000000	  43.6660000000	  19.9163000000
F	  58.7133000000	  44.3143000000	  21.8957000000
F	  60.2536422507	  43.0306000000	  21.0938000000
