53

Li	  12.0474000000	  18.9536000000	  47.8590000000
O	  10.6478000000	  18.7108000000	  49.1979000000
O	   9.3308600000	  18.1160000000	  51.0366000000
C	   9.8187300000	  19.8678000000	  49.5635000000
C	   9.3214900000	  19.5420000000	  50.9914000000
C	   9.9196100000	  17.6931000000	  49.8620000000
H	  10.3500000000	  20.7805000000	  49.7385000000
H	   8.9581300000	  20.0353000000	  48.9790000000
H	   9.9253000000	  19.8516000000	  51.8453000000
H	   8.2450700000	  19.8011000000	  51.0605000000
H	   9.1545000000	  17.2189000000	  49.2533000000
H	  10.5303000000	  16.8569000000	  50.1412000000
O	  15.7397000000	  18.0297000000	  49.1073000000
O	  13.5794000000	  18.5013000000	  48.8187000000
C	  15.0574000000	  17.0165000000	  49.8113000000
C	  13.7291000000	  17.7453000000	  49.9874000000
C	  14.8655000000	  18.6780000000	  48.2822000000
H	  15.0120000000	  16.0791000000	  49.2702000000
H	  15.4781000000	  16.8696000000	  50.7501000000
H	  12.8569000000	  17.0973000000	  50.1797000000
H	  13.7251000000	  18.4616000000	  50.8512000000
H	  15.3644000000	  19.6563000000	  48.1978000000
H	  14.9827000000	  18.2260000000	  47.3282000000
N	  13.1894000000	  15.5539000000	  46.1897000000
S	  13.7057000000	  14.4409000000	  45.2577000000
O	  12.9440000000	  13.2729000000	  45.1644000000
O	  14.4061000000	  14.8584000000	  44.0833000000
C	  15.1800000000	  14.0389000000	  46.2819000000
F	  14.8022000000	  13.8478000000	  47.6054000000
F	  15.9722000000	  15.0479000000	  46.2851000000
F	  15.8974000000	  13.0428000000	  45.9235000000
S	  11.6829000000	  16.0312000000	  46.4118000000
O	  10.7890000000	  15.7971000000	  45.3033000000
O	  11.6646000000	  17.3443000000	  47.0195000000
C	  11.2052000000	  14.9446000000	  47.7993000000
F	   9.9765800000	  15.2151000000	  48.1864000000
F	  11.2075000000	  13.6767000000	  47.5359000000
F	  11.9977000000	  15.0823000000	  48.8904000000
N	  10.2343000000	  22.5738000000	  46.6041000000
S	  11.3900000000	  21.5863000000	  46.1063000000
O	  11.2775000000	  20.2680000000	  46.6700000000
O	  11.7296000000	  21.7827000000	  44.7285000000
C	  12.9117000000	  22.1832000000	  47.0569000000
F	  14.0718000000	  21.6368000000	  46.7349000000
F	  12.8972000000	  22.0554000000	  48.3828000000
F	  13.1401000000	  23.4860000000	  46.8848000000
S	   8.7348700000	  22.3703000000	  46.3975000000
O	   7.8414600000	  23.1143000000	  47.2965000000
O	   8.4125500000	  20.9564000000	  46.1680000000
C	   8.4763500000	  23.2957000000	  44.8019000000
F	   7.2366500000	  23.2664000000	  44.4317000000
F	   8.7862800000	  24.5740000000	  44.8402000000
F	   9.0858500000	  22.7026000000	  43.8284000000
