20

Li	  18.3061000000	  52.8479000000	   9.2168000000
O	  14.6007000000	  52.3247000000	  11.1031000000
O	  16.6206000000	  52.7668000000	  10.1409000000
C	  15.0121000000	  53.5511000000	  11.5878000000
C	  16.4954000000	  53.4876000000	  11.3969000000
C	  15.6038000000	  51.8047000000	  10.2499000000
H	  14.5159000000	  54.3498000000	  11.0461000000
H	  14.7518000000	  53.6861000000	  12.6498000000
H	  16.9151000000	  54.5383000000	  11.3268000000
H	  17.0075000000	  53.0380000000	  12.2780000000
H	  15.9603000000	  50.8721000000	  10.6247000000
H	  15.2240000000	  51.6332000000	   9.2418800000
S	  18.0946000000	  52.6778000000	   7.2588700000
S	  19.5970000000	  54.2510000000	   7.6515900000
S	  18.8653000000	  55.5258000000	   9.1320400000
S	  20.7964000000	  52.7861000000	  12.7834000000
S	  19.4658000000	  51.1958000000	  12.4357000000
S	  19.0587000000	  50.8140000000	  10.4122000000
S	  19.7556000000	  54.6036000000	  12.3844000000
S	  20.3102000000	  55.6774000000	  10.6890000000
