38

Li	  57.2567000000	  40.0458000000	  45.8278000000
O	  60.3050922507	  40.5027000000	  48.6200000000
O	  58.2474000000	  40.2579000000	  47.6011000000
C	  59.2906412507	  40.5853000000	  49.6665000000
C	  57.9285000000	  40.3453000000	  48.9932000000
C	  59.6257822507	  39.8326000000	  47.6118000000
H	  59.4542122507	  39.9832000000	  50.4731000000
H	  59.3156232507	  41.5603000000	  50.2168000000
H	  57.3869000000	  39.4501000000	  49.3563000000
H	  57.3170000000	  41.2183000000	  49.0691000000
H	  60.0505322507	  40.0110000000	  46.6174000000
H	  59.6587522507	  38.7382000000	  47.8514000000
O	  55.4143000000	  40.6779000000	  45.9607000000
N	  53.2316000000	  41.0724000000	  45.6018000000
N	  53.6923000000	  39.9529000000	  47.3894000000
C	  52.0611000000	  41.0957000000	  46.3890000000
C	  52.3067000000	  40.2874000000	  47.6422000000
C	  54.2139000000	  40.6031000000	  46.3285000000
C	  53.3619000000	  41.5280000000	  44.2839000000
C	  54.4263000000	  39.0260000000	  48.2635000000
H	  51.7472000000	  42.1025000000	  46.6292000000
H	  51.2012000000	  40.7399000000	  45.8568000000
H	  52.1640000000	  40.9183000000	  48.5009000000
H	  51.6196000000	  39.4140000000	  47.7280000000
H	  53.9048000000	  40.7624000000	  43.6777000000
H	  52.5011000000	  42.0282000000	  43.8720000000
H	  54.0314000000	  42.4455000000	  44.2191000000
H	  53.8381000000	  38.1922000000	  48.7074000000
H	  55.2120000000	  38.5604000000	  47.7040000000
H	  54.9641000000	  39.5141000000	  49.1152000000
S	  48.8539000000	  35.8885000000	  42.0738000000
S	  50.0491000000	  37.6870000000	  42.1948000000
S	  51.0971000000	  38.0373000000	  43.9607000000
S	  55.6177000000	  37.4763000000	  45.3704000000
S	  57.6291000000	  37.4676000000	  45.0482000000
S	  58.2088000000	  39.2629000000	  44.2491000000
S	  54.4106000000	  36.6584000000	  43.8664000000
S	  53.0929000000	  38.1018000000	  43.2688000000
