63

Li	   6.8021400000	  47.5315000000	  14.6753000000
O	   7.8704600000	  48.7974000000	  15.3914000000
O	   9.2352600000	  48.9924000000	  17.2568000000
C	   9.2354800000	  48.9438000000	  14.9181000000
C	  10.0537000000	  48.6940000000	  16.1675000000
C	   7.8893800000	  49.0699000000	  16.7287000000
H	   9.3223900000	  48.2220000000	  14.1473000000
H	   9.3667300000	  50.0071000000	  14.7058000000
H	  10.1922000000	  47.6787000000	  16.3239000000
H	  11.0414000000	  49.1334000000	  16.0845000000
H	   7.4959800000	  50.0999000000	  16.9002000000
H	   7.2723700000	  48.5132000000	  17.3888000000
O	   6.5498800000	  47.3911000000	  12.8655000000
N	   6.1194600000	  46.6536000000	  10.7341000000
N	   5.6721600000	  48.7314000000	  11.2271000000
C	   5.4316900000	  47.0964000000	   9.6004000000
C	   5.1307700000	  48.5171000000	   9.8426600000
C	   6.1336000000	  47.5562000000	  11.7043000000
C	   6.6703100000	  45.2721000000	  10.6601000000
C	   5.7701200000	  50.0631000000	  11.8156000000
H	   6.0246500000	  46.9091000000	   8.7150700000
H	   4.5384000000	  46.5681000000	   9.5192100000
H	   5.5837600000	  49.2214000000	   9.0661800000
H	   4.0391100000	  48.5796000000	   9.8157200000
H	   7.6742200000	  45.4186000000	  10.8128000000
H	   6.3557700000	  44.6937000000	  11.5662000000
H	   6.4410400000	  44.6075000000	   9.8052800000
H	   5.0964400000	  50.7074000000	  11.3238000000
H	   5.6013500000	  50.2092000000	  12.9112000000
H	   6.7097400000	  50.6037000000	  11.6371000000
O	   7.1732800000	  45.8372000000	  15.4491000000
N	   7.4006800000	  43.5364000000	  15.4736000000
N	   8.2024800000	  44.5483000000	  17.1308000000
C	   8.0162700000	  42.4488000000	  16.2263000000
C	   8.6984300000	  43.1863000000	  17.3870000000
C	   7.5665300000	  44.7664000000	  15.9602000000
C	   6.7031400000	  43.1609000000	  14.2913000000
C	   8.7108100000	  45.6422000000	  17.9597000000
H	   7.2923600000	  41.7406000000	  16.5538000000
H	   8.7405200000	  41.9840000000	  15.6044000000
H	   8.4016500000	  42.9179000000	  18.3596000000
H	   9.8127900000	  43.3069000000	  17.2104000000
H	   5.6632300000	  42.7852000000	  14.4786000000
H	   6.6315200000	  44.1253000000	  13.7222000000
H	   7.1534500000	  42.4257000000	  13.6409000000
H	   9.2978800000	  45.3628000000	  18.9088000000
H	   9.5467100000	  46.2305000000	  17.5245000000
H	   8.0102000000	  46.4217000000	  18.2862000000
N	   3.0590500000	  47.6275000000	  16.7152000000
S	   3.8508100000	  47.6653000000	  18.0844000000
O	   5.1672400000	  47.1026000000	  18.0197000000
O	   3.6042900000	  48.8541000000	  18.8243000000
C	   2.8685900000	  46.4026000000	  19.0324000000
F	   3.2645200000	  46.4563000000	  20.3014000000
F	   3.0870100000	  45.2401000000	  18.5868000000
F	   1.5963900000	  46.7023000000	  18.9946000000
S	   3.6323800000	  47.5027000000	  15.3016000000
O	   5.0549500000	  47.8096000000	  15.2263000000
O	   2.8250600000	  48.0130000000	  14.2508000000
C	   3.5476200000	  45.6380000000	  15.0086000000
F	   2.3381100000	  45.1447000000	  15.2654000000
F	   3.9098900000	  45.1955000000	  13.7805000000
F	   4.3168200000	  44.9373000000	  15.7727000000
