52

Li	  10.4349000000	   6.7767700000	  36.7323000000
O	  11.6576000000	   6.3719000000	  35.2240000000
N	  11.6434000000	   4.3424400000	  34.3427000000
N	  13.2125000000	   5.6908700000	  33.6822000000
C	  12.3774000000	   3.4827700000	  33.4567000000
C	  13.4059000000	   4.4704100000	  32.8761000000
C	  12.1426000000	   5.5159200000	  34.4591000000
C	  10.3224000000	   3.8535400000	  34.7176000000
C	  13.7899000000	   6.9737600000	  33.1928000000
H	  12.9135000000	   2.6654300000	  33.9851000000
H	  11.6990000000	   3.0383900000	  32.6850000000
H	  14.4874000000	   4.1787000000	  32.9587000000
H	  13.0736000000	   4.7770700000	  31.8628000000
H	  10.0673000000	   4.2695200000	  35.7173000000
H	   9.5517200000	   4.2505000000	  34.0146000000
H	  10.3636000000	   2.7675600000	  34.6113000000
H	  13.1249000000	   7.4901100000	  32.4850000000
H	  14.1350000000	   7.6593800000	  34.0056000000
H	  14.6742000000	   6.7541200000	  32.6973000000
O	  11.0678000000	   8.2487300000	  37.8185000000
N	  12.9998000000	   9.4443700000	  38.1962000000
N	  11.7175000000	   8.9265200000	  39.8714000000
C	  13.6847000000	  10.0935000000	  39.2578000000
C	  12.7801000000	   9.7200000000	  40.4840000000
C	  11.8685000000	   8.8202400000	  38.5265000000
C	  13.3141000000	   9.6980800000	  36.8099000000
C	  10.5639000000	   8.5730000000	  40.6779000000
H	  14.6139000000	   9.5806300000	  39.2922000000
H	  13.8756000000	  11.1780000000	  39.2639000000
H	  13.2605000000	   9.0130300000	  41.1444000000
H	  12.3545000000	  10.6524000000	  41.0092000000
H	  13.1395000000	   8.8276900000	  36.1738000000
H	  12.8105000000	  10.5637000000	  36.3808000000
H	  14.3843000000	   9.9164400000	  36.7980000000
H	  10.9216000000	   7.8146900000	  41.4063000000
H	  10.2250000000	   9.4138700000	  41.2405000000
H	   9.7955800000	   8.1784000000	  40.0058000000
N	  11.1017000000	   3.1834300000	  37.9396000000
S	  10.5367000000	   1.7354400000	  38.0487000000
O	   9.9910800000	   1.3315100000	  39.3236000000
O	   9.8671100000	   1.3752100000	  36.8399000000
C	  12.0961000000	   0.7041577493	  37.9926000000
F	  11.8966000000	  -0.5142422507	  38.4355000000
F	  13.0072000000	   1.3329000000	  38.7161000000
F	  12.5783000000	   0.5662577493	  36.7910000000
S	  10.6731000000	   4.3595200000	  38.8430000000
O	  10.0854000000	   4.0264900000	  40.0787000000
O	   9.9963100000	   5.3181900000	  38.0019000000
C	  12.2696000000	   5.1303400000	  39.3172000000
F	  12.7317000000	   5.8868500000	  38.3213000000
F	  12.1755000000	   5.8619700000	  40.3683000000
F	  13.2461000000	   4.2895600000	  39.6195000000
