35

Li	  46.0469000000	  22.9931000000	   8.4099300000
O	  49.7138000000	  24.0612000000	   7.5518600000
O	  47.4882000000	  23.9551000000	   7.7170000000
C	  49.1295000000	  23.4482000000	   6.3514300000
C	  47.7390000000	  24.0429000000	   6.2961100000
C	  48.6497000000	  24.3284000000	   8.3741200000
H	  49.7484000000	  23.5741000000	   5.5064500000
H	  49.0282000000	  22.3770000000	   6.6257400000
H	  47.5692000000	  25.0061000000	   5.9138200000
H	  47.0722000000	  23.4159000000	   5.7514700000
H	  48.6715000000	  23.8803000000	   9.3213200000
H	  48.5898000000	  25.3951000000	   8.6034700000
N	  44.2537000000	  23.9407000000	  12.1907000000
S	  45.0663000000	  23.1576000000	  11.0535000000
O	  44.2513000000	  22.3027000000	  10.2490000000
O	  46.0480000000	  23.9140000000	  10.3604000000
C	  45.9918000000	  21.9467000000	  12.1289000000
F	  45.1645000000	  21.1246000000	  12.7194000000
F	  46.7793000000	  22.5154000000	  12.9981000000
F	  46.8036000000	  21.2039000000	  11.3802000000
S	  43.9361000000	  25.4403000000	  12.4533000000
O	  44.2879000000	  26.4207000000	  11.4001000000
O	  44.1542000000	  25.8231000000	  13.8369000000
C	  42.1223000000	  25.4089000000	  12.5541000000
F	  41.5572000000	  25.0093000000	  11.3998000000
F	  41.7645000000	  24.6770000000	  13.5220000000
F	  41.6446000000	  26.6279000000	  12.8071000000
S	  47.1916000000	  15.9569000000	  -0.9913973915
S	  46.3613000000	  15.6246000000	   0.9931080000
S	  46.5228000000	  17.1570000000	   2.4331400000
S	  44.2570000000	  19.3770000000	   6.0234700000
S	  44.5984000000	  21.0068000000	   7.2195500000
S	  46.5147000000	  20.9405000000	   8.0307300000
S	  44.4369000000	  19.8162000000	   3.9140500000
S	  44.5658000000	  18.0620000000	   2.8375400000
