52

Li	   2.1505800000	  19.0347000000	  12.5675000000
O	   4.0285400000	  19.4445000000	  12.4135000000
N	   6.2079800000	  19.7999000000	  11.8459000000
N	   4.9389800000	  21.5310000000	  11.9971000000
C	   7.1092100000	  20.8526000000	  11.4362000000
C	   6.2206700000	  22.1353000000	  11.6345000000
C	   4.9302700000	  20.2044000000	  12.0786000000
C	   6.7439900000	  18.4606000000	  11.9660000000
C	   3.7817200000	  22.3829000000	  12.3690000000
H	   8.0191100000	  20.9128000000	  11.9644000000
H	   7.2922500000	  20.6598000000	  10.3652000000
H	   6.6951700000	  22.8272000000	  12.3268000000
H	   6.0904900000	  22.5655000000	  10.6149000000
H	   5.9571800000	  17.7713000000	  12.2188000000
H	   7.1727200000	  18.2550000000	  10.9395000000
H	   7.5877800000	  18.3247000000	  12.6573000000
H	   3.6635300000	  22.3875000000	  13.4438000000
H	   3.9587700000	  23.4397000000	  12.1481000000
H	   2.7926800000	  22.0611000000	  12.0781000000
O	   1.7946000000	  17.2127000000	  12.0718000000
N	   0.5565577493	  15.3469000000	  11.6259000000
N	   2.2798500000	  15.7859000000	  10.3633000000
C	   0.5191577493	  14.3219000000	  10.6050000000
C	   1.7461100000	  14.6325000000	   9.7489100000
C	   1.5410800000	  16.1941000000	  11.3968000000
C	  -0.6508422507	  15.5283000000	  12.4795000000
C	   3.5287100000	  16.3770000000	   9.8505300000
H	   0.6042577493	  13.3616000000	  11.1059000000
H	  -0.4259422507	  14.3162000000	  10.1082000000
H	   2.5142300000	  13.8295000000	   9.8029800000
H	   1.5226600000	  14.7930000000	   8.7306600000
H	  -0.9511422507	  16.5664000000	  12.6358000000
H	  -1.5130422507	  15.1093000000	  11.9906000000
H	  -0.5527422507	  15.0884000000	  13.4160000000
H	   3.4420500000	  17.4861000000	   9.9854500000
H	   4.4937700000	  16.1602000000	  10.3743000000
H	   3.5792000000	  16.1272000000	   8.7383900000
N	  -0.0863422507	  19.5937000000	  15.5077000000
S	  -0.3510422507	  20.5488000000	  14.2344000000
O	  -0.5010422507	  21.9626000000	  14.5676000000
O	   0.4631577493	  20.2790000000	  13.0935000000
C	  -1.9812422507	  19.9655000000	  13.7878000000
F	  -2.4815422507	  20.4530000000	  12.7030000000
F	  -2.8319422507	  20.2134000000	  14.7118000000
F	  -1.9729422507	  18.6529000000	  13.6485000000
S	   0.9130130000	  18.4029000000	  15.5500000000
O	   2.1199500000	  18.6956000000	  14.7871000000
O	   0.3170577493	  17.0729000000	  15.5596000000
C	   1.5431100000	  18.6402000000	  17.2247000000
F	   2.2954200000	  17.6207000000	  17.6557000000
F	   2.3598800000	  19.7372000000	  17.2949000000
F	   0.5093577493	  18.8044000000	  17.9767000000
