56

Li	  26.3899000000	  31.8772000000	   7.3581800000
O	  27.9248000000	  30.7998000000	   6.7437900000
O	  28.5673000000	  28.6306000000	   6.8582200000
C	  29.2625000000	  30.7995000000	   7.1683600000
C	  29.4468000000	  29.3701000000	   7.6802200000
C	  27.5781000000	  29.4612000000	   6.3713500000
H	  29.9911000000	  31.1336000000	   6.3224000000
H	  29.4464000000	  31.4911000000	   7.9740300000
H	  30.4968000000	  29.0878000000	   7.6981700000
H	  29.1948000000	  29.2384000000	   8.7451500000
H	  26.5855000000	  29.1086000000	   6.7179600000
H	  27.5250000000	  29.4580000000	   5.2721300000
O	  25.5211000000	  35.2773000000	   7.1387100000
O	  25.8617000000	  33.2983000000	   6.3380400000
C	  26.1520000000	  35.5237000000	   5.8800500000
C	  26.5955000000	  34.1916000000	   5.4543400000
C	  24.8930000000	  34.0968000000	   6.8938500000
H	  25.3380000000	  35.8905000000	   5.1509400000
H	  27.0041000000	  36.2383000000	   5.9586300000
H	  26.3692000000	  33.9785000000	   4.4154500000
H	  27.6140000000	  34.0808000000	   5.6645900000
H	  24.5877000000	  33.5215000000	   7.8325900000
H	  24.0356000000	  34.1781000000	   6.1887400000
O	  26.8052000000	  32.2499000000	   9.1676400000
N	  25.9363000000	  32.1038000000	  11.2180000000
N	  27.5622000000	  33.5551000000	  10.9113000000
C	  26.1278000000	  32.6677000000	  12.5487000000
C	  27.2696000000	  33.7286000000	  12.3322000000
C	  26.7785000000	  32.6066000000	  10.3388000000
C	  25.0443000000	  31.0183000000	  11.0748000000
C	  28.3174000000	  34.6400000000	  10.2128000000
H	  25.1707000000	  33.0019000000	  12.8654000000
H	  26.4161000000	  31.8074000000	  13.1325000000
H	  26.9509000000	  34.7781000000	  12.4600000000
H	  28.0731000000	  33.5130000000	  13.0318000000
H	  24.8654000000	  30.9754000000	   9.9546300000
H	  25.5616000000	  30.0798000000	  11.3461000000
H	  24.0908000000	  31.1096000000	  11.6094000000
H	  27.6723000000	  35.3954000000	   9.7614800000
H	  28.9450000000	  35.1424000000	  10.9904000000
H	  29.0915000000	  34.1415000000	   9.6034800000
N	  23.1654000000	  29.9768000000	   5.3186900000
S	  24.3461000000	  29.3833000000	   4.4203500000
O	  25.4295000000	  30.3435000000	   4.2441100000
O	  24.6856000000	  27.9929000000	   4.7613700000
C	  23.4533000000	  29.3844000000	   2.8008000000
F	  23.0484000000	  30.5892000000	   2.4645400000
F	  22.3532000000	  28.6224000000	   2.6580300000
F	  24.2987000000	  28.9663000000	   1.8468500000
S	  23.2064000000	  30.8891000000	   6.6046200000
O	  22.5063000000	  32.1106000000	   6.4106500000
O	  24.4820000000	  30.8696000000	   7.2505400000
C	  22.1884000000	  30.0862000000	   7.8725300000
F	  22.6669000000	  28.8961000000	   8.2477400000
F	  22.2355000000	  30.8441000000	   8.9922300000
F	  20.9689000000	  29.8544000000	   7.4482500000
