27

Li	  15.3179000000	  34.7217000000	  51.8109000000
O	  14.3189000000	  33.5760000000	  50.7336000000
N	  14.3115000000	  31.3443000000	  50.3340000000
N	  12.5464000000	  32.1457000000	  51.1243000000
C	  13.4815000000	  30.1453000000	  50.4912000000
C	  12.2064000000	  30.7599000000	  51.0700000000
C	  13.7575000000	  32.4856000000	  50.7514000000
C	  15.7025000000	  31.3096000000	  49.8685000000
C	  11.5887000000	  33.1190000000	  51.6591000000
H	  13.3044000000	  29.6420000000	  49.5217000000
H	  13.9538000000	  29.3885000000	  51.1819000000
H	  11.4293000000	  30.5808000000	  50.3465000000
H	  11.9017000000	  30.3630000000	  52.0165000000
H	  16.3537000000	  30.9635000000	  50.7099000000
H	  15.8280000000	  30.7096000000	  48.9225000000
H	  16.0224000000	  32.3414000000	  49.6236000000
H	  10.6570000000	  32.6163000000	  51.8504000000
H	  11.9291000000	  33.5451000000	  52.5976000000
H	  11.4053000000	  33.8795000000	  50.9790000000
S	  14.9114000000	  36.5585000000	  50.8299000000
S	  17.0645000000	  36.3924000000	  50.4694000000
S	  17.7575000000	  34.4092000000	  50.1900000000
S	  16.6504000000	  32.5981000000	  54.7317000000
S	  14.6087000000	  33.0151000000	  54.4599000000
S	  14.3415000000	  34.8181000000	  53.6520000000
S	  17.4995000000	  32.0210000000	  52.9250000000
S	  18.5968000000	  33.4986000000	  51.9501000000
