63

Li	  30.5212000000	  18.1359000000	  46.0564000000
O	  28.8577000000	  17.1779000000	  45.9024000000
N	  27.4540000000	  15.4171000000	  45.7767000000
N	  27.5552000000	  16.4614000000	  47.6035000000
C	  26.4004000000	  14.8280000000	  46.5755000000
C	  26.3232000000	  15.7946000000	  47.8007000000
C	  28.0174000000	  16.4184000000	  46.4163000000
C	  27.8083000000	  15.0405000000	  44.3745000000
C	  28.0059000000	  17.4610000000	  48.5120000000
H	  25.5819000000	  14.9285000000	  45.9095000000
H	  26.6070000000	  13.7832000000	  46.7949000000
H	  25.5893000000	  16.5705000000	  47.8270000000
H	  26.3484000000	  15.2560000000	  48.7381000000
H	  26.8856000000	  14.6388000000	  43.8974000000
H	  28.1564000000	  15.8448000000	  43.8014000000
H	  28.6504000000	  14.3170000000	  44.3685000000
H	  28.2873000000	  18.4175000000	  47.9914000000
H	  27.2721000000	  17.7126000000	  49.3082000000
H	  28.8509000000	  16.9835000000	  49.0197000000
O	  30.3446000000	  19.4442000000	  47.3374000000
N	  30.5783000000	  21.6759000000	  47.1215000000
N	  30.9404000000	  20.8247000000	  49.0263000000
C	  31.1306000000	  22.7898000000	  47.8570000000
C	  31.2630000000	  22.2055000000	  49.2810000000
C	  30.5903000000	  20.5628000000	  47.7997000000
C	  30.1836000000	  21.7261000000	  45.6424000000
C	  31.0011000000	  19.9452000000	  50.1343000000
H	  32.0468000000	  23.0077000000	  47.4331000000
H	  30.4580000000	  23.6437000000	  47.6831000000
H	  32.2652000000	  22.4387000000	  49.7539000000
H	  30.5580000000	  22.6554000000	  49.8789000000
H	  30.2966000000	  22.6826000000	  45.1957000000
H	  30.7800000000	  20.9405000000	  45.0462000000
H	  29.2079000000	  21.4516000000	  45.5200000000
H	  31.3623000000	  20.4000000000	  51.0384000000
H	  30.0671000000	  19.5302000000	  50.2435000000
H	  31.6954000000	  19.1442000000	  49.7422000000
O	  30.9857000000	  18.5030000000	  44.3417000000
N	  31.9227000000	  19.1821000000	  42.3731000000
N	  29.6731000000	  19.3846000000	  42.6636000000
C	  31.4515000000	  19.7114000000	  41.0513000000
C	  29.9260000000	  19.8995000000	  41.2869000000
C	  30.8431000000	  18.9221000000	  43.1661000000
C	  33.2831000000	  18.7995000000	  42.6247000000
C	  28.3137000000	  19.1992000000	  43.1658000000
H	  31.9839000000	  20.6551000000	  40.7916000000
H	  31.4942000000	  18.9140000000	  40.3157000000
H	  29.6958000000	  20.9950000000	  41.2893000000
H	  29.1130000000	  19.5596000000	  40.5733000000
H	  33.4976000000	  18.4162000000	  43.6308000000
H	  33.6542000000	  18.0458000000	  41.9110000000
H	  33.8828000000	  19.6622000000	  42.5889000000
H	  27.8299000000	  18.3082000000	  42.7722000000
H	  28.2580000000	  19.3056000000	  44.2152000000
H	  27.6113000000	  19.9089000000	  42.8688000000
S	  31.7445000000	  16.3193000000	  46.4767000000
S	  33.8623000000	  16.2212000000	  45.9361000000
S	  34.9004000000	  14.4554000000	  46.6640000000
S	  35.1503000000	  13.5324000000	  42.2072000000
S	  34.9894000000	  12.3262000000	  40.5697000000
S	  35.9237000000	  13.3026000000	  38.9841000000
S	  35.8181000000	  12.4841000000	  43.8983000000
S	  34.3917000000	  12.7739000000	  45.4394000000
