60

Li	  28.6396000000	  29.0217000000	   7.0323000000
O	  27.1097000000	  25.4246000000	   6.5854700000
O	  27.4513000000	  27.5288000000	   6.7347000000
C	  26.1800000000	  25.9471000000	   5.6701000000
C	  26.5111000000	  27.4093000000	   5.7246800000
C	  27.2292000000	  26.4198000000	   7.5021600000
H	  26.3185000000	  25.4473000000	   4.7027400000
H	  25.2103000000	  25.7079000000	   6.0553000000
H	  26.9612000000	  27.7372000000	   4.7799300000
H	  25.6569000000	  28.1090000000	   5.9230900000
H	  26.3627000000	  26.5467000000	   8.1283600000
H	  28.0758000000	  26.1769000000	   8.1070600000
O	  29.5379000000	  28.6923000000	   8.5346200000
N	  30.6134000000	  28.4071000000	  10.6368000000
N	  31.2707000000	  30.0644000000	   9.3580800000
C	  31.5005000000	  29.2433000000	  11.4796000000
C	  32.1103000000	  30.2469000000	  10.5690000000
C	  30.3925000000	  28.9839000000	   9.4269600000
C	  29.6590000000	  27.4496000000	  11.1505000000
C	  31.2540000000	  31.0820000000	   8.3614300000
H	  30.7716000000	  29.6105000000	  12.2481000000
H	  32.2001000000	  28.5598000000	  11.9632000000
H	  31.8996000000	  31.2378000000	  10.9814000000
H	  33.1653000000	  30.1152000000	  10.2197000000
H	  28.6982000000	  27.9057000000	  11.3557000000
H	  29.3758000000	  26.6672000000	  10.4477000000
H	  30.0328000000	  26.9248000000	  12.0554000000
H	  31.2228000000	  30.7261000000	   7.3084400000
H	  30.3006000000	  31.6648000000	   8.4589100000
H	  32.0069000000	  31.8443000000	   8.4780100000
N	  32.2823000000	  28.5792000000	   4.8654700000
S	  30.9520000000	  27.7472000000	   5.1765300000
O	  31.1966000000	  26.4745000000	   5.7655200000
O	  29.9597000000	  28.6284000000	   5.7903600000
C	  30.2334000000	  27.1544000000	   3.5355100000
F	  30.0479000000	  28.1803000000	   2.7023700000
F	  29.1210000000	  26.5008000000	   3.6937400000
F	  31.0526000000	  26.3804000000	   2.8779300000
S	  32.4190000000	  30.1613000000	   4.7459900000
O	  33.2614000000	  30.7564000000	   5.8168700000
O	  31.1615000000	  30.7620000000	   4.3188800000
C	  33.3524000000	  30.3556000000	   3.1572000000
F	  34.5659000000	  29.8444000000	   3.2434400000
F	  32.7713000000	  29.7117000000	   2.1204100000
F	  33.5637000000	  31.6418000000	   2.8774200000
N	  27.4962000000	  32.5460000000	   8.5790900000
S	  27.6764000000	  31.8137000000	   9.9445000000
O	  27.0923000000	  30.4685000000	   9.9961700000
O	  28.9513000000	  32.0541000000	  10.5680000000
C	  26.5725000000	  32.8951000000	  11.0244000000
F	  26.9103000000	  34.1311000000	  10.8238000000
F	  26.6846000000	  32.5967000000	  12.3067000000
F	  25.2388000000	  32.7917000000	  10.7897000000
S	  27.1207000000	  31.9220000000	   7.1389000000
O	  25.7232000000	  32.0960000000	   6.8340600000
O	  27.7405000000	  30.6417000000	   6.7946200000
C	  27.9347000000	  33.1237000000	   6.0438600000
F	  29.2267000000	  33.2409000000	   6.3205700000
F	  27.8466000000	  32.8082000000	   4.7588800000
F	  27.4363000000	  34.3823000000	   6.0730900000
