52

Li	  18.2596000000	   9.1627000000	  58.4522000000
O	  16.2510000000	  11.3640000000	  61.0624573915
O	  17.6181000000	  10.6297000000	  59.5747373915
C	  16.2444000000	  12.3212000000	  60.0272873915
C	  17.4785000000	  11.9545000000	  59.2205583915
C	  17.4575000000	  10.7785000000	  60.8983673915
H	  15.3853000000	  12.0280000000	  59.4405073915
H	  16.0890000000	  13.4124000000	  60.2259473915
H	  17.4968000000	  12.0397000000	  58.1119000000
H	  18.3295000000	  12.5341000000	  59.5563473915
H	  18.2644000000	  11.2879000000	  61.3877573915
H	  17.4460000000	   9.7454300000	  61.2896373915
O	  16.6546000000	   8.6478100000	  57.8486000000
O	  14.4320000000	   9.2640400000	  57.9078000000
C	  16.1865000000	   8.3985200000	  56.5648000000
C	  14.9459000000	   9.2776800000	  56.5637000000
C	  15.4467000000	   8.5761700000	  58.5849000000
H	  16.9757000000	   8.6852000000	  55.8122000000
H	  15.8404000000	   7.3444400000	  56.4373000000
H	  15.2203000000	  10.2933000000	  56.2464000000
H	  14.1883000000	   8.9343500000	  55.7910000000
H	  15.3113000000	   7.5069400000	  58.6446000000
H	  15.4654000000	   8.9901300000	  59.6008973915
O	  19.0594000000	   8.0299700000	  59.6329373915
O	  19.0786000000	   5.9060300000	  59.4500773915
C	  20.4204000000	   7.7570400000	  59.5118873915
C	  20.4616000000	   6.2606300000	  59.1907000000
C	  18.6188000000	   6.8681400000	  60.2290073915
H	  20.8726000000	   8.3950400000	  58.7427000000
H	  20.9542000000	   8.0118300000	  60.4130673915
H	  20.6839000000	   6.0959200000	  58.1631000000
H	  21.1724000000	   5.7565000000	  59.8125073915
H	  18.8255000000	   6.8178700000	  61.2986473915
H	  17.5071000000	   6.8050700000	  60.1981073915
O	  19.3664000000	   9.5744900000	  56.9467000000
N	  19.9632000000	   8.6846700000	  54.9684000000
N	  19.9380000000	  10.9068000000	  55.1387000000
C	  20.3807000000	   9.1009000000	  53.6572000000
C	  20.4986000000	  10.6556000000	  53.8259000000
C	  19.6998000000	   9.7394100000	  55.7579000000
C	  19.9490000000	   7.3453700000	  55.4026000000
C	  19.9575000000	  12.2255000000	  55.7474000000
H	  21.2562000000	   8.6250300000	  53.5093000000
H	  19.5778000000	   8.8139400000	  52.9805000000
H	  21.4918000000	  11.0860000000	  53.7481000000
H	  19.9918000000	  11.2038000000	  53.0360000000
H	  19.9454000000	   6.6719100000	  54.6317000000
H	  20.9048000000	   7.2731900000	  55.9251000000
H	  19.1751000000	   7.0634100000	  56.1327000000
H	  19.1830000000	  12.8051000000	  55.3158000000
H	  19.6509000000	  12.1881000000	  56.7408000000
H	  20.9381000000	  12.6454000000	  55.7087000000
