66

Li	   4.5121800000	  23.2859000000	  57.6093000000
O	   3.0270900000	  23.6868000000	  56.5758000000
O	   2.2551400000	  24.7345000000	  54.7741000000
C	   2.3660700000	  24.8420000000	  57.1203000000
C	   1.8134500000	  25.4405000000	  55.8387000000
C	   3.2990100000	  24.0365000000	  55.2526000000
H	   1.5642700000	  24.4802000000	  57.7695000000
H	   2.9854600000	  25.4771000000	  57.7699000000
H	   0.7365577493	  25.4807000000	  55.9168000000
H	   2.1298300000	  26.4818000000	  55.7441000000
H	   4.2555200000	  24.5484000000	  55.2462000000
H	   3.4807500000	  23.1534000000	  54.5631000000
O	   5.9064500000	  24.6321000000	  57.7765000000
N	   6.7862500000	  26.2109000000	  59.1780000000
N	   8.1089100000	  25.2177000000	  57.7576000000
C	   7.9560600000	  26.8290000000	  59.4781773915
C	   8.8658200000	  26.2991000000	  58.4012000000
C	   6.8287300000	  25.3466000000	  58.1719000000
C	   5.6406300000	  26.3796000000	  60.0241873915
C	   8.6486500000	  24.4498000000	  56.5951000000
H	   7.9196700000	  27.9269000000	  59.4318473915
H	   8.2154100000	  26.6663000000	  60.4987273915
H	   9.1983400000	  27.0950000000	  57.7579000000
H	   9.8030900000	  25.8538000000	  58.7290000000
H	   5.6404200000	  25.5895000000	  60.7642473915
H	   5.5433100000	  27.3460000000	  60.4427573915
H	   4.8203100000	  26.2442000000	  59.4405973915
H	   9.7007000000	  24.1145000000	  56.7679000000
H	   8.0339500000	  23.5290000000	  56.3158000000
H	   8.7532300000	  25.0872000000	  55.6439000000
O	   3.9078900000	  23.2695000000	  59.3321843915
N	   4.2247100000	  22.0628000000	  61.2172373915
N	   2.7975900000	  21.3006000000	  59.7664773915
C	   3.8660600000	  20.7793000000	  61.7720273915
C	   2.8960700000	  20.2428000000	  60.7419273915
C	   3.6452100000	  22.3287000000	  60.0481473915
C	   5.3260400000	  22.7760000000	  61.8584773915
C	   1.8254400000	  21.2143000000	  58.6804000000
H	   4.7385700000	  20.1735000000	  61.8581573915
H	   3.4632700000	  21.0898000000	  62.7217773915
H	   3.1719600000	  19.3008000000	  60.2679673915
H	   1.9098200000	  20.1776000000	  61.2244173915
H	   6.0734000000	  23.2109000000	  61.2188173915
H	   4.8851100000	  23.5708000000	  62.4203373915
H	   5.9077000000	  22.1494000000	  62.5445173915
H	   0.8596750000	  21.1331000000	  59.1630000000
H	   1.7771100000	  22.1738000000	  58.2120000000
H	   1.9855900000	  20.4299000000	  57.8506000000
O	   4.8478900000	  21.5922000000	  56.6978000000
N	   6.9461400000	  20.7835000000	  56.4576000000
N	   5.5202100000	  20.3733000000	  54.8628000000
C	   7.6740600000	  19.9022000000	  55.6241000000
C	   6.6814300000	  19.5191000000	  54.5309000000
C	   5.6694900000	  21.0087000000	  55.9911000000
C	   7.3569600000	  20.9977000000	  57.8342000000
C	   4.2680800000	  20.1729000000	  54.1794000000
H	   8.5217800000	  20.5628000000	  55.2929000000
H	   8.0870000000	  19.1776000000	  56.2611000000
H	   7.1548500000	  19.7145000000	  53.5369000000
H	   6.4728000000	  18.4730000000	  54.6609000000
H	   7.0831900000	  21.9486000000	  58.1782000000
H	   6.8944700000	  20.2532000000	  58.4316000000
H	   8.3828600000	  20.8933000000	  57.9141000000
H	   3.7147100000	  21.0778000000	  54.0726000000
H	   4.4195000000	  19.7640000000	  53.2291000000
H	   3.6050700000	  19.4787000000	  54.7225000000
