34

Li	   1.2606400000	   7.1613600000	  43.3187000000
O	  -0.1549422507	   6.2793900000	  44.3581000000
O	  -1.8628422507	   5.6797900000	  45.6419000000
C	  -1.0939422507	   5.7081400000	  43.4410000000
C	  -2.3357422507	   5.4674300000	  44.3290000000
C	  -0.4724422507	   5.5602900000	  45.4819000000
H	  -1.2781422507	   6.4560800000	  42.5882000000
H	  -0.8355422507	   4.7307500000	  42.9840000000
H	  -3.0240422507	   6.3103300000	  44.2443000000
H	  -2.8326422507	   4.4731100000	  44.1071000000
H	  -0.1397422507	   4.5198100000	  45.3578000000
H	  -0.0131422507	   5.9677900000	  46.3155000000
O	   0.7858577493	   7.4815400000	  38.9542000000
O	   0.7550577493	   7.5687100000	  41.3005000000
C	   1.1874600000	   8.7574600000	  39.4178000000
C	   0.7180577493	   8.9050600000	  40.8169000000
C	   0.6110577493	   6.7845900000	  40.1572000000
H	   2.2588900000	   8.8463600000	  39.3149000000
H	   0.7521577493	   9.6636200000	  38.8429000000
H	   1.3832200000	   9.5634200000	  41.3865000000
H	  -0.2794422507	   9.2705800000	  40.8979000000
H	  -0.3569422507	   6.3797900000	  40.2126000000
H	   1.1754100000	   5.8234200000	  40.2594000000
O	   2.9881800000	   4.3823000000	  41.6631000000
O	   2.4829200000	   5.8090300000	  43.1986000000
C	   4.1129800000	   5.1910600000	  41.6147000000
C	   3.6624700000	   6.2847400000	  42.6535000000
C	   2.4874500000	   4.4447600000	  42.9746000000
H	   4.9991200000	   4.7348300000	  41.9743000000
H	   4.2299700000	   5.5712300000	  40.6191000000
H	   4.4124800000	   6.3203500000	  43.4484000000
H	   3.5100500000	   7.2236300000	  42.2259000000
H	   1.4523800000	   4.0835700000	  42.9484000000
H	   3.0443700000	   3.9440300000	  43.6435000000
