46

Li	  44.5538000000	  58.2360000000	   3.5174400000
O	  45.4760000000	  59.3972162507	   2.1203300000
O	  46.0204000000	  61.5290022507	   1.6768800000
C	  45.8796000000	  59.4258722507	   0.6789026085
C	  45.7194000000	  60.8974422507	   0.3847026085
C	  45.9892000000	  60.5397122507	   2.6498900000
H	  46.8903000000	  59.0989000000	   0.6519026085
H	  45.2921000000	  58.7146000000	   0.0340026085
H	  46.4061000000	  61.2276822507	  -0.3922973915
H	  44.6523000000	  61.1041722507	   0.0479026085
H	  45.3153000000	  60.7860022507	   3.4983200000
H	  47.0947000000	  60.3888622507	   2.9198800000
O	  45.9325000000	  56.9542000000	   3.3427700000
N	  46.8105000000	  55.0211000000	   2.4151900000
N	  45.9314000000	  54.8495000000	   4.3350600000
C	  47.0614000000	  53.6449000000	   2.6636400000
C	  46.4175000000	  53.5762000000	   4.0751000000
C	  46.1861000000	  55.7212000000	   3.3381000000
C	  47.6482000000	  55.7093000000	   1.5349400000
C	  45.4138000000	  55.1900000000	   5.6412700000
H	  46.6772000000	  52.9652000000	   1.8513200000
H	  48.1291000000	  53.5854000000	   2.6087800000
H	  45.6212000000	  52.8931000000	   4.1347300000
H	  47.1660000000	  53.3552000000	   4.8778500000
H	  47.1049000000	  56.5884000000	   1.1482100000
H	  48.5026000000	  55.9370000000	   2.0981300000
H	  47.8902000000	  55.0901000000	   0.7517026085
H	  46.0857000000	  55.7923000000	   6.2400900000
H	  44.6292000000	  55.9025000000	   5.4077000000
H	  45.1450000000	  54.3343000000	   6.2009800000
S	  42.7186000000	  57.8401000000	   2.5935300000
S	  42.8888000000	  55.7182000000	   3.0117900000
S	  43.4763000000	  54.6587000000	   1.2634700000
S	  43.2787000000	  49.8393000000	   2.6177500000
S	  41.8870000000	  48.3438000000	   2.1606700000
S	  40.3876000000	  48.3648000000	   3.6779200000
S	  43.7639000000	  51.0931000000	   0.9905120000
S	  42.4891000000	  52.7857000000	   0.9662580000
S	  44.0256000000	  69.5266422507	   7.3923400000
S	  44.0104000000	  67.4067822507	   7.0989300000
S	  44.7488000000	  66.9675222507	   5.1199000000
S	  44.8005000000	  62.3441922507	   6.1038000000
S	  43.8414000000	  60.4923122507	   5.9148700000
S	  45.1315000000	  58.8742000000	   5.4909500000
S	  44.7423000000	  63.4231322507	   4.3198200000
S	  43.7485000000	  65.3097722507	   4.3193600000
