62

Li	   4.5543300000	  43.8861000000	  57.6631000000
O	   5.1787900000	  46.2631000000	  56.6190000000
O	   4.4988700000	  43.8344000000	  55.8222000000
O	   4.1566500000	  47.7887000000	  58.9513000000
C	   4.2192800000	  46.1731000000	  55.6395000000
C	   5.5090700000	  47.6305000000	  56.9968000000
C	   4.4600700000	  44.8612000000	  54.8581000000
C	   4.3252500000	  48.3585000000	  57.6095000000
C	   4.9052600000	  42.5870000000	  55.1507000000
C	   3.0463600000	  48.4134000000	  59.5661504795
H	   3.2852900000	  46.1033000000	  56.0983000000
H	   4.2108500000	  47.1234000000	  55.0455000000
H	   6.4144600000	  47.6153000000	  57.6210000000
H	   5.7918700000	  48.2905000000	  56.1826000000
H	   3.6405300000	  44.6806000000	  54.1789000000
H	   5.4455200000	  44.8566000000	  54.3842000000
H	   4.5251600000	  49.4501000000	  57.5312000000
H	   3.4279800000	  48.3005000000	  56.9846000000
H	   4.4933300000	  41.7566000000	  55.7197000000
H	   4.4132800000	  42.5711000000	  54.1140000000
H	   5.9987000000	  42.5326000000	  54.9701000000
H	   2.0720800000	  48.1817000000	  59.0722000000
H	   2.9620200000	  48.1104000000	  60.5992704795
H	   3.2932500000	  49.4904000000	  59.5057804795
O	   4.2302900000	  44.8829000000	  59.3479204795
O	   2.2836800000	  43.8181000000	  57.6698000000
O	   6.2522500000	  43.8714000000	  58.2922000000
C	   2.9352800000	  44.7903000000	  59.8639904795
C	   5.1486200000	  44.5337000000	  60.3123704795
C	   2.0471700000	  44.9495000000	  58.5387000000
C	   6.5054400000	  44.4663000000	  59.6255804795
C	   1.4610700000	  43.8608000000	  56.4996000000
C	   7.4615200000	  44.0341000000	  57.4483000000
H	   2.7173500000	  43.7711000000	  60.2977204795
H	   2.6815900000	  45.5658000000	  60.6217704795
H	   5.2385500000	  45.1283000000	  61.2387204795
H	   4.9812500000	  43.5165000000	  60.5849604795
H	   0.9906690000	  45.1560000000	  58.7567000000
H	   2.2524300000	  45.8196000000	  58.0079000000
H	   6.9571600000	  45.4611000000	  59.5679404795
H	   7.0842500000	  43.8594000000	  60.2484504795
H	   1.5941600000	  44.7178000000	  55.8552000000
H	   1.7278800000	  43.0021000000	  55.7705000000
H	   0.4028137586	  43.7316000000	  56.7596000000
H	   7.2459100000	  44.3433000000	  56.4244000000
H	   8.2703700000	  44.6571000000	  57.8534000000
H	   7.9493000000	  43.0772000000	  57.3155000000
N	   4.1225800000	  40.0617000000	  60.1734004795
S	   4.5221100000	  40.3771000000	  58.7114000000
O	   4.1793800000	  39.2369000000	  57.8298000000
O	   4.3438300000	  41.7119000000	  58.2327000000
C	   6.4132100000	  40.2607000000	  58.8008000000
F	   6.9565700000	  40.6385000000	  57.6550000000
F	   6.8312400000	  39.0780000000	  59.1687104795
F	   6.9065300000	  41.1203000000	  59.7060104795
S	   2.7768600000	  40.3456000000	  60.9116304795
O	   1.8102400000	  41.1964000000	  60.2475904795
O	   2.9896000000	  40.7456000000	  62.2659804795
C	   1.9621200000	  38.6947000000	  61.0244804795
F	   1.6826100000	  38.1688000000	  59.8275404795
F	   2.8131100000	  37.7598000000	  61.6051104795
F	   0.8792137586	  38.7609000000	  61.7543004795
