50

Li	  23.2080000000	  17.6148000000	   4.5668400000
O	  23.6432000000	  19.4653000000	   4.5754800000
O	  24.3712000000	  21.4605000000	   5.6103900000
C	  22.6492000000	  20.4602000000	   4.4442200000
C	  23.3747000000	  21.7976000000	   4.6278800000
C	  24.7735000000	  20.2108000000	   5.0498500000
H	  21.9592000000	  20.2986000000	   3.5510400000
H	  21.9903000000	  20.2710000000	   5.3150300000
H	  23.8783000000	  22.1439000000	   3.6955600000
H	  22.6474000000	  22.5424000000	   4.9619300000
H	  25.2845000000	  19.7540000000	   5.9455200000
H	  25.4988000000	  20.2745000000	   4.2581600000
O	  21.3094000000	  17.5394000000	   4.6806600000
O	  22.9507000000	  17.1734000000	   6.5748300000
O	  22.6492000000	  17.9149000000	   2.6249600000
C	  20.6611000000	  17.2027000000	   5.8916800000
C	  20.4813000000	  17.4290000000	   3.5232800000
C	  21.6439000000	  17.5541000000	   7.0227600000
C	  21.3772000000	  17.2360000000	   2.3752900000
C	  23.9435000000	  17.3324000000	   7.6478000000
C	  23.5082000000	  17.9113000000	   1.5200400000
H	  19.7671000000	  17.8102000000	   5.9104300000
H	  20.3383000000	  16.1853000000	   5.9271300000
H	  19.6931000000	  16.5806000000	   3.5928800000
H	  19.9732000000	  18.4084000000	   3.3843100000
H	  21.6174000000	  18.5724000000	   7.3734200000
H	  21.4881000000	  16.8971000000	   7.9003600000
H	  21.5495000000	  16.1775000000	   2.1349100000
H	  20.8938000000	  17.5756000000	   1.5007700000
H	  24.1407000000	  18.3686000000	   7.6336000000
H	  23.5444000000	  17.0978000000	   8.6143000000
H	  24.8397000000	  16.7765000000	   7.4153800000
H	  23.1394000000	  18.4487000000	   0.7059495205
H	  24.4308000000	  18.4760000000	   1.8773400000
H	  23.7824000000	  16.9542000000	   1.2291300000
N	  25.4416000000	  14.5226000000	   3.7830800000
S	  26.1092000000	  15.9076000000	   4.1886100000
O	  25.1469000000	  17.0138000000	   4.2951600000
O	  27.1318000000	  15.7135000000	   5.2060600000
C	  27.0830000000	  16.3985000000	   2.7386500000
F	  28.0964000000	  15.5500000000	   2.4925300000
F	  27.6129000000	  17.6036000000	   2.9757800000
F	  26.3180000000	  16.5670000000	   1.6452800000
S	  23.8584000000	  14.3623000000	   3.4437000000
O	  23.5374000000	  13.8622000000	   2.1482900000
O	  22.9971000000	  15.3924000000	   3.9919700000
C	  23.4136000000	  12.9674000000	   4.5089600000
F	  24.0534000000	  11.8981000000	   4.1941400000
F	  23.6845000000	  13.2189000000	   5.7406800000
F	  22.1578000000	  12.6032000000	   4.4148700000
