51

Li	  32.2787000000	   4.2291200000	  45.5131000000
O	  31.6735000000	   0.7165598938	  43.3783000000
O	  32.3212000000	   2.6659400000	  44.1892000000
C	  32.7733000000	   1.0387300000	  42.5621000000
C	  33.1214000000	   2.4618400000	  43.0317000000
C	  31.2270000000	   1.7937600000	  44.1049000000
H	  33.6489000000	   0.3854598938	  42.7558000000
H	  32.4536000000	   1.0705600000	  41.5579000000
H	  34.2151000000	   2.4942400000	  43.2435000000
H	  32.8113000000	   3.2050700000	  42.2309000000
H	  30.5006000000	   2.3091500000	  43.4829000000
H	  30.7269000000	   1.5100800000	  45.0693000000
O	  32.0886000000	   6.4695200000	  47.0595000000
O	  30.6243000000	   7.8314100000	  45.4784000000
O	  32.6349000000	   3.6300900000	  47.2477000000
C	  32.3945000000	   7.8694300000	  47.1127000000
C	  32.5091000000	   5.8218600000	  48.3303000000
C	  31.7486000000	   8.5518100000	  45.8831000000
C	  32.2635000000	   4.3140400000	  48.4961000000
C	  30.3489000000	   8.0457200000	  44.0584000000
C	  32.3375000000	   2.2549600000	  47.3467000000
H	  31.8144000000	   8.1899800000	  47.9211000000
H	  33.4572000000	   8.1655500000	  47.2524000000
H	  33.5893000000	   5.9714300000	  48.4731000000
H	  32.0743000000	   6.4007200000	  49.1677000000
H	  31.4668000000	   9.5905800000	  45.9728000000
H	  32.6313000000	   8.4561400000	  45.1394000000
H	  32.8505000000	   4.0016800000	  49.3718000000
H	  31.1985000000	   4.2657000000	  48.6602000000
H	  29.4929000000	   7.5690000000	  43.6666000000
H	  30.3180000000	   9.1517900000	  43.7654000000
H	  31.1739000000	   7.6961800000	  43.4263000000
H	  31.2173000000	   2.1477900000	  47.2622000000
H	  32.8999000000	   1.7204100000	  46.5663000000
H	  32.6853000000	   1.9381300000	  48.3841000000
S	  33.7550000000	   5.6552500000	  44.7320000000
S	  35.7252000000	   5.2344000000	  45.2546000000
S	  36.3062000000	   6.6096000000	  46.7447000000
S	  39.7017000000	   9.5647600000	  48.1041000000
S	  38.0746000000	  10.8254000000	  48.6966000000
S	  38.1815000000	  11.7879000000	  50.5388000000
S	  39.2375000000	   8.2608600000	  46.4908000000
S	  38.3561000000	   6.5010200000	  47.1276000000
S	  23.8672000000	  -3.7083401062	  41.9243000000
S	  24.1619000000	  -1.6784401062	  41.2969000000
S	  24.4383000000	  -0.5100401062	  43.0025000000
S	  27.3485000000	   2.6959000000	  45.1313000000
S	  28.0785000000	   4.7002200000	  44.9096000000
S	  30.2019000000	   4.6800400000	  45.3121000000
S	  27.0145000000	   2.0609900000	  43.1580000000
S	  26.5135000000	   0.0637598938	  43.1458000000
