28

Li	  31.5379000000	  24.6440000000	   7.9353600000
O	  28.9609000000	  21.4832000000	   8.9724500000
O	  30.3065000000	  23.2129000000	   8.3005700000
C	  28.7421000000	  21.5333000000	   7.5443800000
C	  29.9201000000	  22.4802000000	   7.1583800000
C	  29.4819000000	  22.6979000000	   9.3221400000
H	  28.8650000000	  20.5541000000	   7.0982200000
H	  27.7665000000	  22.0286000000	   7.3309000000
H	  30.7425000000	  21.8987000000	   6.7552900000
H	  29.5233000000	  23.0921000000	   6.3054200000
H	  28.6773000000	  23.4199000000	   9.5612300000
H	  30.1163000000	  22.4272000000	  10.2138000000
S	  32.1320000000	  25.4451000000	   9.8570200000
S	  30.8886000000	  25.2441000000	  11.6941000000
S	  31.1239000000	  23.4525000000	  12.7335000000
S	  34.0462000000	  20.7595000000	  15.3202000000
S	  34.4671000000	  20.7226000000	  17.4249000000
S	  35.2954000000	  18.8748000000	  18.0468000000
S	  34.1109000000	  22.8290000000	  14.4517000000
S	  32.2569000000	  23.6614000000	  14.5184000000
S	  25.2302000000	  28.3443000000	   5.6406600000
S	  24.9134000000	  27.0475000000	   7.2875300000
S	  26.5280000000	  27.3196000000	   8.5472300000
S	  30.6522000000	  25.8738000000	   5.8007600000
S	  32.6969000000	  25.4191000000	   5.9473000000
S	  33.0901000000	  23.6104000000	   6.9859700000
S	  29.8510000000	  26.8005000000	   7.4741500000
S	  28.0865000000	  25.9022000000	   8.3025900000
