46

Li	  14.7271000000	  30.1135000000	  24.3717000000
O	  14.8955000000	  30.8316000000	  28.1773000000
O	  15.0038000000	  31.1089000000	  26.0364000000
C	  16.1734000000	  31.2090000000	  27.8656000000
C	  16.2284000000	  31.7461000000	  26.4348000000
C	  14.1780000000	  31.2793000000	  27.1367000000
H	  16.3902000000	  31.9529000000	  28.6052000000
H	  16.9155000000	  30.3652000000	  27.9588000000
H	  16.1295000000	  32.8109000000	  26.4160000000
H	  17.1818000000	  31.4966000000	  25.9100000000
H	  13.2014000000	  30.7634000000	  26.9908000000
H	  14.0061000000	  32.3664000000	  27.2043000000
O	  16.1090000000	  28.9313000000	  24.0970000000
O	  17.9171000000	  27.9814000000	  23.2432000000
C	  16.7408000000	  28.3423000000	  25.1898000000
C	  17.8249000000	  27.4524000000	  24.5110000000
C	  17.1348000000	  29.0840000000	  23.1906000000
H	  17.2883000000	  29.1283000000	  25.7840000000
H	  16.0390000000	  27.8315000000	  25.8235000000
H	  18.7425000000	  27.3448000000	  25.0577000000
H	  17.4106000000	  26.3976000000	  24.4431000000
H	  16.6947000000	  29.1550000000	  22.2408000000
H	  17.5600000000	  30.0877000000	  23.4137000000
O	  12.8966000000	  29.5934000000	  23.8666000000
O	  14.8039000000	  31.2013000000	  22.6571000000
O	  13.4284000000	  28.6206000000	  26.4420000000
C	  12.4731000000	  30.2852000000	  22.6756000000
C	  11.8107000000	  29.3447000000	  24.7530000000
C	  13.8164000000	  30.4505000000	  21.9023000000
C	  12.2006000000	  28.3483000000	  25.9088000000
C	  14.6058000000	  32.6011000000	  22.5182000000
C	  13.5506000000	  27.8594000000	  27.6359000000
H	  11.7789000000	  29.6407000000	  22.1896000000
H	  11.9217000000	  31.2250000000	  22.9411000000
H	  11.4334000000	  30.3012000000	  25.1368000000
H	  10.9078000000	  29.0092000000	  24.2177000000
H	  14.2397000000	  29.4833000000	  21.8122000000
H	  13.6287000000	  30.7879000000	  20.9020000000
H	  11.4573000000	  28.2152000000	  26.6424000000
H	  12.2133000000	  27.3603000000	  25.3982000000
H	  15.5514000000	  33.0993000000	  22.9179000000
H	  14.5931000000	  33.0046000000	  21.5253000000
H	  13.7029000000	  33.0270000000	  22.9735000000
H	  12.9115000000	  28.4905000000	  28.3008000000
H	  13.1815000000	  26.8449000000	  27.6263000000
H	  14.5002000000	  27.8563000000	  28.1457000000
