65

Li	  50.5307000000	  40.7130000000	  20.6043000000
O	  50.2551000000	  41.6302000000	  18.6912000000
O	  50.6018000000	  42.0036000000	  16.4740000000
C	  49.8816000000	  43.0191000000	  18.3219000000
C	  49.6687000000	  42.9728000000	  16.8432000000
C	  50.4881000000	  41.0581000000	  17.4617000000
H	  48.9862000000	  43.4773000000	  18.8274000000
H	  50.7317000000	  43.6555000000	  18.5077000000
H	  48.7232000000	  42.6390000000	  16.5495000000
H	  49.9085000000	  43.9182000000	  16.4480000000
H	  51.2692000000	  40.3482000000	  17.3106000000
H	  49.5862000000	  40.4807000000	  17.2961000000
O	  52.2392000000	  41.6581000000	  20.6248000000
O	  54.7531000000	  43.1762000000	  19.8448000000
O	  51.5292000000	  39.0471000000	  21.1819000000
C	  52.6801000000	  42.9818000000	  20.9698000000
C	  53.2142000000	  40.6498000000	  20.9608000000
C	  53.4260000000	  43.5982000000	  19.7385000000
C	  52.6769000000	  39.3335000000	  20.4954000000
C	  55.4759000000	  43.3971000000	  18.6678000000
C	  51.0215000000	  37.7478000000	  21.0658000000
H	  51.7258000000	  43.5163000000	  20.8904000000
H	  53.0952000000	  43.2745000000	  21.9418000000
H	  54.2038000000	  40.9041000000	  20.6308000000
H	  53.1561000000	  40.5600000000	  22.0229000000
H	  52.9285000000	  43.2048000000	  18.8440000000
H	  53.3481000000	  44.6854000000	  19.7245000000
H	  52.4745000000	  39.2882000000	  19.4839000000
H	  53.4998000000	  38.5929000000	  20.6565000000
H	  55.1423000000	  42.8733000000	  17.8187000000
H	  55.3653000000	  44.4664000000	  18.3377000000
H	  56.5679000000	  43.2409000000	  18.7309000000
H	  51.7766000000	  36.8707000000	  21.2162000000
H	  50.1341000000	  37.6314000000	  21.6116000000
H	  50.7484000000	  37.6071000000	  20.0187000000
N	  49.1047000000	  42.7828000000	  23.9153000000
S	  48.5653000000	  41.7910000000	  22.8409000000
O	  49.4640000000	  41.7435000000	  21.7366000000
O	  47.9543000000	  40.5236000000	  23.3141000000
C	  47.1446000000	  42.8828000000	  22.2339000000
F	  46.4373000000	  42.4531000000	  21.1952000000
F	  47.5983000000	  44.0895000000	  22.0125000000
F	  46.3332000000	  43.0820000000	  23.1833000000
S	  50.3994000000	  43.6601000000	  23.7401000000
O	  50.2473000000	  44.7845000000	  22.8751000000
O	  51.6363000000	  42.9404000000	  23.6789000000
C	  50.4772000000	  44.4743000000	  25.3738000000
F	  51.1410000000	  45.5850000000	  25.3500000000
F	  49.2717000000	  44.7403000000	  25.8675000000
F	  51.0502000000	  43.6859000000	  26.2772000000
N	  47.4957000000	  37.2739000000	  19.2340000000
S	  47.4900000000	  38.7886000000	  19.5491000000
O	  48.5952000000	  39.3114000000	  20.3489000000
O	  46.7907000000	  39.6130000000	  18.6514000000
C	  46.2881000000	  38.6455000000	  20.8735000000
F	  46.6746000000	  38.0002000000	  21.9695000000
F	  45.2005000000	  37.9231000000	  20.4386000000
F	  45.7294000000	  39.8304000000	  21.2082000000
S	  48.2134000000	  36.5719000000	  18.0608000000
O	  49.4250000000	  37.3079000000	  17.7033000000
O	  47.3353000000	  36.1844000000	  17.0097000000
C	  48.8033000000	  34.9763000000	  18.8142000000
F	  47.8163000000	  34.1821000000	  19.1698000000
F	  49.5245000000	  34.3086000000	  17.9658000000
F	  49.5626000000	  35.1929000000	  19.8399000000
