43

Li	  23.9003000000	  35.9323000000	  26.8641000000
O	  24.5185000000	  35.6875000000	  25.1655000000
O	  25.9481000000	  35.0808000000	  23.4982000000
C	  23.7515000000	  35.0490000000	  24.1720000000
C	  24.6051000000	  35.1714000000	  22.9699000000
C	  25.7823000000	  35.3121000000	  24.9003000000
H	  23.5800000000	  33.9945000000	  24.3944000000
H	  22.8606000000	  35.4934000000	  23.8777000000
H	  24.4723000000	  34.3171000000	  22.2787000000
H	  24.3957000000	  36.0912000000	  22.3746000000
H	  26.4266000000	  36.0977000000	  25.2020000000
H	  26.0306000000	  34.3681000000	  25.5070000000
O	  23.5286000000	  37.9668000000	  27.3358000000
O	  21.8821000000	  36.0581000000	  26.2909000000
O	  26.0126000000	  36.5313000000	  27.7302000000
C	  22.5304000000	  38.4069000000	  26.4003000000
C	  24.7427000000	  38.6642000000	  27.5546000000
C	  21.4303000000	  37.3599000000	  26.6117000000
C	  25.7069000000	  37.7982000000	  28.3847000000
C	  20.8589000000	  35.1194000000	  26.6510000000
C	  26.9237000000	  35.7428000000	  28.3862000000
H	  22.0196000000	  39.3335000000	  26.6087000000
H	  22.9293000000	  38.3802000000	  25.3456000000
H	  25.2494000000	  38.9443000000	  26.6747000000
H	  24.4608000000	  39.5680000000	  28.1535000000
H	  21.1169000000	  37.4561000000	  27.6660000000
H	  20.6456000000	  37.5445000000	  25.9587000000
H	  26.5965000000	  38.3122000000	  28.5731000000
H	  25.2411000000	  37.5319000000	  29.3608000000
H	  21.2295000000	  34.2466000000	  26.1759000000
H	  20.8067000000	  35.1319000000	  27.7638000000
H	  19.8987000000	  35.3539000000	  26.0764000000
H	  26.8652000000	  34.6825000000	  28.0084000000
H	  28.0242000000	  35.9885000000	  28.2679000000
H	  26.7546000000	  35.5645000000	  29.4749000000
S	  23.9580000000	  34.0811000000	  28.1155000000
S	  23.7168000000	  31.9505000000	  27.6093000000
S	  25.3433000000	  31.4236000000	  26.3526000000
S	  29.8886000000	  31.3472000000	  25.9466000000
S	  31.6857000000	  30.3554000000	  26.2509000000
S	  33.1740000000	  31.6687000000	  27.0077000000
S	  28.6607000000	  31.3623000000	  27.6923000000
S	  26.7881000000	  30.3564000000	  27.3638000000
