32

Li	  50.3391000000	  23.3546000000	  26.9344000000
O	  51.1330000000	  21.6871000000	  26.7826000000
O	  50.1041000000	  23.2620000000	  24.9227000000
O	  51.2368000000	  22.6199000000	  29.5023000000
C	  51.3562000000	  21.3451000000	  25.4289000000
C	  52.1311000000	  21.3020000000	  27.7404000000
C	  50.1462000000	  21.9047000000	  24.7072000000
C	  51.4492000000	  21.2797000000	  29.0762000000
C	  48.8321000000	  23.7283000000	  24.4652000000
C	  50.4581000000	  22.6099000000	  30.7273000000
H	  52.2927000000	  21.8509000000	  25.0455000000
H	  51.4299000000	  20.2650000000	  25.3047000000
H	  52.6035000000	  20.2716000000	  27.4944000000
H	  53.0077000000	  21.9271000000	  27.8202000000
H	  50.2969000000	  21.7438000000	  23.6203000000
H	  49.3736000000	  21.3491000000	  25.0845000000
H	  50.5674000000	  20.6201000000	  29.0273000000
H	  52.2579000000	  20.9467000000	  29.7922000000
H	  48.0419000000	  23.1813000000	  25.0045000000
H	  48.7192000000	  24.7822000000	  24.4968000000
H	  48.6500000000	  23.4708000000	  23.4621000000
H	  50.1176000000	  23.6410000000	  30.7596000000
H	  49.4966000000	  22.0682000000	  30.5835000000
H	  51.0293000000	  22.3438000000	  31.6654000000
S	  41.3719000000	  19.7553000000	  24.1522000000
S	  43.4406000000	  19.1644000000	  23.6861000000
S	  44.6506000000	  19.4359000000	  25.4064000000
S	  48.0256000000	  22.2860000000	  27.6355000000
S	  48.3036000000	  24.2294000000	  28.4982000000
S	  49.8521000000	  25.2772000000	  27.4926000000
S	  46.1605000000	  22.1901000000	  26.7394000000
S	  46.1946000000	  20.8329000000	  25.1084000000
