47

Li	  23.6537000000	  27.0170000000	  42.2250000000
O	  24.6262000000	  26.9299000000	  40.6412000000
O	  25.5802000000	  26.6013000000	  42.9560000000
O	  22.0425000000	  26.6224000000	  41.1059000000
C	  26.0086000000	  26.7675000000	  40.6642000000
C	  23.9644000000	  26.4248000000	  39.5325000000
C	  26.4813000000	  27.1488000000	  42.0314000000
C	  22.5314000000	  26.7560000000	  39.7527000000
C	  25.9569000000	  25.3193000000	  43.5110000000
C	  20.8459000000	  27.3119000000	  41.2473000000
H	  26.2835000000	  25.7299000000	  40.4334000000
H	  26.4174000000	  27.3291000000	  39.9077000000
H	  24.3819000000	  26.7161000000	  38.5951000000
H	  24.1928000000	  25.3756000000	  39.7279000000
H	  27.4983000000	  26.7408000000	  42.1463000000
H	  26.5274000000	  28.2283000000	  42.0083000000
H	  22.4282000000	  27.8135000000	  39.4816000000
H	  21.9782000000	  26.0966000000	  39.1888000000
H	  25.1208000000	  24.8806000000	  44.0133000000
H	  26.2770000000	  24.5676000000	  42.7503000000
H	  26.8427000000	  25.4303000000	  44.1433000000
H	  20.3264000000	  26.9276000000	  42.1052000000
H	  20.9885000000	  28.3468000000	  41.3173000000
H	  20.2210000000	  27.1172000000	  40.4036000000
O	  22.6488000000	  27.2149000000	  43.8936000000
O	  22.7511000000	  24.4664000000	  42.7818000000
O	  23.9069000000	  28.9495000000	  42.2731000000
C	  22.3531000000	  26.0139000000	  44.6788000000
C	  23.2223000000	  28.3062000000	  44.5050000000
C	  21.8053000000	  24.8845000000	  43.6802000000
C	  23.2974000000	  29.4659000000	  43.4797000000
C	  22.1730000000	  23.6571000000	  41.7665000000
C	  24.0253000000	  29.8846000000	  41.3011000000
H	  23.1888000000	  25.5912000000	  45.2945000000
H	  21.4763000000	  26.2331000000	  45.2751000000
H	  22.7743000000	  28.6529000000	  45.3978000000
H	  24.2781000000	  28.0143000000	  44.7304000000
H	  21.4118000000	  24.0443000000	  44.2727000000
H	  20.8276000000	  25.2279000000	  43.2380000000
H	  22.2954000000	  29.8401000000	  43.2343000000
H	  23.9196000000	  30.2935000000	  43.7816000000
H	  21.4461000000	  24.1954000000	  41.1340000000
H	  22.9316000000	  23.4156000000	  41.0378000000
H	  21.7104000000	  22.7620000000	  42.1564000000
H	  24.3987000000	  30.9188000000	  41.5940000000
H	  24.7210000000	  29.4763000000	  40.4653000000
H	  23.1517000000	  30.1321000000	  40.7810000000
