54

Li	  34.8190000000	  42.0470000000	  45.8384000000
O	  35.8225000000	  40.4191000000	  45.4707000000
O	  36.1168000000	  41.7496000000	  47.4788000000
O	  33.8811000000	  41.9788000000	  44.0995000000
C	  36.2237000000	  39.5353000000	  46.5327000000
C	  35.0106000000	  39.8420000000	  44.4014000000
C	  36.6886000000	  40.4676000000	  47.6914000000
C	  34.7588000000	  41.0190000000	  43.5052000000
C	  36.3786000000	  42.6774000000	  48.5343000000
C	  33.3924000000	  42.9066000000	  43.1242000000
H	  35.3401000000	  38.9614000000	  46.9148000000
H	  37.0176000000	  38.8777000000	  46.1755000000
H	  35.5005000000	  39.0573000000	  43.8958000000
H	  34.1408000000	  39.2858000000	  44.8411000000
H	  36.3324000000	  40.0273000000	  48.6624000000
H	  37.8108000000	  40.5584000000	  47.6796000000
H	  35.6577000000	  41.5622000000	  43.2493000000
H	  34.1910000000	  40.6805000000	  42.6019000000
H	  37.4052000000	  42.6083000000	  48.8737000000
H	  36.1058000000	  43.6504000000	  48.2775000000
H	  35.7630000000	  42.4472000000	  49.4081000000
H	  32.6417000000	  42.3536000000	  42.4897000000
H	  32.8382000000	  43.6135000000	  43.6993000000
H	  34.1538000000	  43.4009000000	  42.5961000000
N	  31.6547000000	  39.6733000000	  48.3643000000
S	  32.2375000000	  40.9778000000	  47.7360000000
O	  33.6217000000	  40.9353000000	  47.4340000000
O	  31.4087000000	  41.4808000000	  46.6650000000
C	  31.9020000000	  42.2066000000	  49.1034000000
F	  32.4170000000	  41.6621000000	  50.2407000000
F	  30.6400000000	  42.4550000000	  49.3082000000
F	  32.4372000000	  43.4058000000	  48.8287000000
S	  31.2617000000	  38.2982000000	  47.7770000000
O	  31.4179000000	  38.2005000000	  46.3537000000
O	  30.0435000000	  37.8346000000	  48.2909000000
C	  32.4792000000	  37.2471000000	  48.5503000000
F	  33.6578000000	  37.4353000000	  47.9810000000
F	  32.6462000000	  37.4706000000	  49.8134000000
F	  32.3194000000	  35.9524000000	  48.3657000000
N	  35.8701000000	  45.6277000000	  45.7267000000
S	  34.3124000000	  45.3808000000	  46.0059000000
O	  33.5155000000	  46.0080000000	  44.9130000000
O	  34.0121000000	  44.0359000000	  46.4142000000
C	  34.0302000000	  46.3243000000	  47.5059000000
F	  34.5444000000	  47.5896000000	  47.4648000000
F	  34.6255000000	  45.7351000000	  48.5320000000
F	  32.7121000000	  46.4514000000	  47.7907000000
S	  36.8959000000	  44.5230000000	  45.2956000000
O	  36.3552000000	  43.1705000000	  45.0931000000
O	  38.0913000000	  44.5387000000	  46.0923000000
C	  37.4362000000	  45.0912000000	  43.6805000000
F	  38.0120000000	  44.0958000000	  42.9300000000
F	  36.4364000000	  45.5653000000	  42.9763000000
F	  38.2996000000	  46.1311000000	  43.7645000000
