31

Li	   8.5246900000	  12.1089000000	   3.5659500000
O	  11.5187000000	  11.1700000000	   1.6175400000
O	   9.7136400000	  12.3502000000	   2.0698800000
C	  10.4989000000	  10.8362000000	   0.6236495205
C	   9.2928100000	  11.6504000000	   0.9630580000
C	  11.0928000000	  12.4434000000	   1.9146900000
H	  10.8113000000	  10.9408000000	  -0.4465504795
H	  10.3951000000	   9.7719400000	   0.7916495205
H	   8.8880400000	  12.1090000000	   0.0884495205
H	   8.5431500000	  10.9949000000	   1.3772500000
H	  11.6142000000	  12.7435000000	   2.8215500000
H	  11.1834000000	  13.2558000000	   1.1225400000
O	  10.1051000000	  11.3834000000	   4.8797300000
O	  11.4629000000	   9.5789600000	   5.2020500000
C	  10.5307000000	  11.4706000000	   6.1976200000
C	  11.7874000000	  10.6100000000	   6.0814700000
C	  10.2760000000	  10.0560000000	   4.5880400000
H	  10.6683000000	  12.4928000000	   6.5232500000
H	   9.7872200000	  11.0516000000	   6.8876300000
H	  12.6167000000	  11.1997000000	   5.7273400000
H	  12.0282000000	  10.0940000000	   6.9891400000
H	   9.4957100000	   9.5415300000	   5.1035000000
H	  10.3207000000	   9.8812400000	   3.5199200000
S	   6.4449700000	  11.4056000000	   3.3399800000
S	   6.6885400000	  13.4303000000	   3.7858200000
S	   8.0506300000	  13.7779000000	   5.3867900000
S	   8.5938700000	  14.9207000000	   9.9663200000
S	   8.5636900000	  14.5779000000	  12.0310000000
S	  10.3846000000	  14.2318000000	  12.9968000000
S	   7.2694200000	  13.7710000000	   8.8782400000
S	   6.9465600000	  14.5937000000	   6.9536800000
