54

Li	  38.3151000000	   7.4934500000	  12.6176000000
O	  39.1111000000	   6.7103800000	  11.0595000000
O	  39.4133000000	   9.2291400000	  12.5198000000
O	  36.8936000000	   5.4452100000	  12.0775000000
C	  39.5594000000	   7.8970300000	  10.4400000000
C	  38.3341000000	   5.8752600000	  10.2240000000
C	  40.2668000000	   8.8167200000	  11.3813000000
C	  37.6402000000	   4.8406600000	  11.1027000000
C	  40.1924000000	   9.8643300000	  13.4743000000
C	  35.9301000000	   4.5838100000	  12.8210000000
H	  40.0052000000	   7.7079500000	   9.4639700000
H	  38.6240000000	   8.4697500000	  10.1252000000
H	  37.7194000000	   6.5659100000	   9.6020700000
H	  38.8928000000	   5.3963400000	   9.4783400000
H	  41.1087000000	   8.2872300000	  11.8183000000
H	  40.5968000000	   9.5729700000	  10.7452000000
H	  37.0135000000	   4.3170400000	  10.4240000000
H	  38.3880000000	   4.1607600000	  11.4635000000
H	  40.9946000000	   9.2470300000	  13.8917000000
H	  40.5750000000	  10.8444000000	  13.1314000000
H	  39.4562000000	  10.1556000000	  14.2294000000
H	  36.4377000000	   3.6965200000	  13.2748000000
H	  35.5641000000	   5.1920300000	  13.6646000000
H	  35.0554000000	   4.1767200000	  12.2700000000
N	  35.1190000000	   9.9681500000	  12.7533000000
S	  35.2080000000	   9.8240500000	  11.1760000000
O	  35.9107000000	   8.6387600000	  10.7567000000
O	  33.9586000000	  10.2081000000	  10.5130000000
C	  36.3505000000	  11.1935000000	  10.8142000000
F	  36.4916000000	  11.3810000000	   9.5132600000
F	  37.6069000000	  11.0515000000	  11.3213000000
F	  35.9184000000	  12.3393000000	  11.3485000000
S	  35.6649000000	   9.0879600000	  13.8663000000
O	  36.9204000000	   8.4388700000	  13.4840000000
O	  34.6830000000	   8.3031500000	  14.5669000000
C	  36.1461000000	  10.3475000000	  15.1190000000
F	  36.6992000000	   9.8174700000	  16.1583000000
F	  36.9643000000	  11.2015000000	  14.6784000000
F	  35.1215000000	  11.0265000000	  15.6791000000
N	  40.7918000000	   5.4311700000	  15.5917000000
S	  42.1446000000	   5.4803000000	  14.7677000000
O	  42.6830000000	   4.1644300000	  14.5048000000
O	  42.1878000000	   6.4551800000	  13.7036000000
C	  43.2572000000	   6.1304600000	  16.0689000000
F	  43.2588000000	   5.4257400000	  17.1562000000
F	  42.9132000000	   7.3608300000	  16.4797000000
F	  44.5570000000	   6.1790500000	  15.7616000000
S	  39.4876000000	   6.3660600000	  15.3701000000
O	  39.2235000000	   6.6155700000	  13.9981000000
O	  39.4253000000	   7.4943700000	  16.2905000000
C	  38.1153000000	   5.2824000000	  15.8988000000
F	  37.9903000000	   5.0397900000	  17.1996000000
F	  36.9552000000	   5.8422900000	  15.6487000000
F	  38.0862000000	   4.0730600000	  15.3418000000
