47

Li	   1.9872600000	   8.0261000000	  56.0205000000
O	   3.6628800000	   8.2483900000	  54.7130000000
O	   5.2469900000	   5.8997300000	  54.9707000000
O	   1.2140400000	   8.6097600000	  54.5299000000
C	   5.0265900000	   8.3256800000	  55.1866000000
C	   3.4118100000	   9.4965300000	  53.9191000000
C	   5.2395800000	   6.9851400000	  55.9114000000
C	   1.9263400000	   9.2974200000	  53.4640000000
C	   6.0597000000	   4.7814900000	  55.4092000000
C	  -0.1567862414	   8.9019500000	  54.5111000000
H	   5.8124000000	   8.5869700000	  54.4502000000
H	   4.9953500000	   9.0873500000	  55.9767000000
H	   3.5037800000	  10.4119000000	  54.5557000000
H	   3.9195700000	   9.5008200000	  52.9071000000
H	   6.1779000000	   7.1697300000	  56.3736000000
H	   4.4807300000	   6.8851100000	  56.6307000000
H	   1.6306500000	  10.3496000000	  53.3112000000
H	   1.8923300000	   8.6712300000	  52.5516000000
H	   7.1416200000	   4.9593800000	  55.4860000000
H	   5.7263500000	   4.3357700000	  56.3741000000
H	   5.9192100000	   4.0591500000	  54.5784000000
H	  -0.4051862414	   9.8929000000	  54.8488000000
H	  -0.6666862414	   8.6800000000	  53.6042000000
H	  -0.6537862414	   8.3369000000	  55.3103000000
N	  -0.8188862414	   4.5324100000	  55.8878000000
S	   0.1275137586	   5.4064300000	  56.7660000000
O	   1.1987600000	   6.1458900000	  56.1167000000
O	  -0.5139862414	   6.0737600000	  57.8733000000
C	   1.0893400000	   4.2244900000	  57.6786000000
F	   1.9990100000	   4.9347900000	  58.3280000000
F	   1.7934100000	   3.3570900000	  56.9242000000
F	   0.3569137586	   3.5412500000	  58.5650000000
S	  -2.1035862414	   4.9593800000	  55.3005000000
O	  -2.3883862414	   4.3383900000	  53.9864000000
O	  -2.3832862414	   6.3496600000	  55.3794000000
C	  -3.2493862414	   4.1009100000	  56.4249000000
F	  -3.1022862414	   4.5237300000	  57.6422000000
F	  -4.4827862414	   4.3377700000	  56.1045000000
F	  -3.1260862414	   2.8217700000	  56.5365000000
S	   9.6087600000	  13.4744000000	  61.3943504795
S	   7.7552200000	  12.6885000000	  60.7417904795
S	   6.1155100000	  14.0598000000	  60.7461704795
S	   3.5597800000	  11.4993000000	  57.0446000000
S	   1.9318300000	  10.2307000000	  57.0569000000
S	   2.2786100000	   8.4211400000	  57.9984000000
S	   3.5111600000	  12.9217000000	  58.5633000000
S	   5.2489700000	  14.1286000000	  58.7328000000
