35

Li	  54.1504000000	  49.6346000000	   1.7209700000
O	  55.2535000000	  49.4422000000	   0.0323495205
O	  54.6392000000	  50.2898000000	  -1.9732504795
C	  55.1769000000	  48.3913000000	  -0.9117504795
C	  54.5517000000	  48.9072000000	  -2.2020504795
C	  55.3775000000	  50.5403000000	  -0.8253504795
H	  56.2278000000	  48.1216000000	  -1.1764504795
H	  54.6063000000	  47.4420000000	  -0.5700504795
H	  55.0700000000	  48.5127000000	  -3.0564504795
H	  53.4517000000	  48.6070000000	  -2.3413504795
H	  54.8729000000	  51.3482000000	  -0.2308504795
H	  56.4329000000	  50.7527000000	  -1.0389504795
O	  52.3573000000	  50.6736000000	   1.4060100000
O	  54.8493000000	  51.3867000000	   2.1593100000
O	  51.9631000000	  47.9737000000	   0.3449495205
C	  52.5256000000	  52.0743000000	   1.6036700000
C	  51.2740000000	  50.3442000000	   0.5815495205
C	  53.6920000000	  52.2026000000	   2.4966800000
C	  50.9262000000	  48.8580000000	   0.7991495205
C	  55.8934000000	  51.5518000000	   3.0240300000
C	  51.6291000000	  46.5766000000	   0.2459495205
H	  52.8305000000	  52.5075000000	   0.6900495205
H	  51.6540000000	  52.5183000000	   2.1230800000
H	  50.3714000000	  50.8811000000	   0.8995940000
H	  51.5722000000	  50.4684000000	  -0.4776504795
H	  53.9961000000	  53.2157000000	   2.7167700000
H	  53.4150000000	  51.6874000000	   3.3594300000
H	  50.5657000000	  48.5897000000	   1.7527300000
H	  50.0392000000	  48.5997000000	   0.2346495205
H	  56.5977000000	  50.7927000000	   2.8373100000
H	  56.4404000000	  52.4779000000	   2.9413900000
H	  55.7427000000	  51.3675000000	   4.0951100000
H	  51.2743000000	  46.1544000000	   1.1505900000
H	  50.8395000000	  46.5218000000	  -0.4949504795
H	  52.5296000000	  45.9362000000	  -0.0104504795
