55

Li	  59.0820000000	  17.2971000000	  21.0682000000
O	  63.7778762414	  18.2038000000	  20.1545000000
O	  60.9463662414	  17.7404000000	  21.0590000000
O	  66.4915362414	  17.9786000000	  19.1616000000
C	  62.6924062414	  17.8410000000	  19.3673000000
C	  64.5821062414	  17.1250000000	  20.5082000000
C	  61.6798062414	  16.9849000000	  20.0900000000
C	  66.0075862414	  17.6557000000	  20.5072000000
C	  61.6473362414	  18.1751000000	  22.2145000000
C	  67.8137562414	  18.4198000000	  19.0109000000
H	  62.1765962414	  18.7140000000	  19.0720000000
H	  63.1863262414	  17.3945000000	  18.4277000000
H	  64.2333062414	  16.5069000000	  21.3572000000
H	  64.5922162414	  16.4841000000	  19.5992000000
H	  61.0958462414	  16.4532000000	  19.3275000000
H	  62.1885962414	  16.2179000000	  20.6070000000
H	  66.3355662414	  18.3629000000	  21.2694000000
H	  66.5340462414	  16.7572000000	  20.7987000000
H	  61.0284362414	  18.4632000000	  22.9700000000
H	  62.1667762414	  17.3364000000	  22.6606000000
H	  62.3780062414	  18.9528000000	  22.0306000000
H	  68.5130862414	  17.7225000000	  19.2275000000
H	  67.9633762414	  18.7543000000	  17.9920000000
H	  68.0235162414	  19.3162000000	  19.6647000000
O	  57.7293000000	  17.3716000000	  22.5004000000
O	  58.6394000000	  19.6215000000	  21.4395000000
O	  59.2389562414	  15.3937000000	  21.2798000000
C	  57.4914000000	  18.6374000000	  23.1594000000
C	  58.2620000000	  16.3222000000	  23.2853000000
C	  57.3496000000	  19.6027000000	  22.0034000000
C	  58.3202000000	  15.0741000000	  22.3456000000
C	  59.0319000000	  20.8957000000	  20.7611000000
C	  59.4411162414	  14.2158000000	  20.5457000000
H	  56.5955000000	  18.5889000000	  23.7433000000
H	  58.2825000000	  18.8262000000	  23.8476000000
H	  59.2793662414	  16.6400000000	  23.6824000000
H	  57.6915000000	  16.0094000000	  24.1922000000
H	  56.6561000000	  19.1500000000	  21.2934000000
H	  57.0693000000	  20.6407000000	  22.2950000000
H	  58.7328000000	  14.2508000000	  22.8832000000
H	  57.2870000000	  14.7342000000	  22.0108000000
H	  58.9473000000	  21.7576000000	  21.4723000000
H	  59.9319262414	  20.7327000000	  20.2968000000
H	  58.3168000000	  21.1508000000	  19.9472000000
H	  58.5050000000	  13.6981000000	  20.3449000000
H	  59.8598862414	  14.5659000000	  19.5881000000
H	  60.0863862414	  13.5154000000	  21.0789000000
S	  55.1345000000	  22.3569000000	  25.9561000000
S	  54.3419000000	  21.1733000000	  24.3706000000
S	  53.7001000000	  22.3104000000	  22.6849000000
S	  55.6958000000	  19.8296000000	  18.4481000000
S	  55.9544000000	  17.7529000000	  18.8634000000
S	  57.9606000000	  17.1356000000	  19.3022000000
S	  54.1582000000	  20.6422000000	  19.5468000000
S	  54.9205000000	  21.9557000000	  20.9998000000
