40

Li	  20.6102000000	  11.9885000000	  22.8118000000
O	  20.8580000000	  13.5160000000	  23.8463000000
O	  20.8806000000	  13.0131000000	  21.2047000000
O	  19.8995000000	  13.0149000000	  27.0079000000
C	  21.0612000000	  14.5821000000	  22.9406000000
C	  21.1939000000	  13.9881000000	  25.1207000000
C	  20.5470000000	  14.3737000000	  21.4983000000
C	  20.9596000000	  12.7864000000	  26.1174000000
C	  20.2312000000	  12.5570000000	  20.0400000000
C	  18.6056000000	  13.1164000000	  26.4315000000
H	  20.6656000000	  15.4704000000	  23.3743000000
H	  22.1584000000	  14.6766000000	  22.9088000000
H	  22.2459000000	  14.2009000000	  25.1928000000
H	  20.5900000000	  14.9235000000	  25.4480000000
H	  19.5034000000	  14.6235000000	  21.4134000000
H	  20.9962000000	  15.0835000000	  20.7785000000
H	  20.9571000000	  11.8953000000	  25.5916000000
H	  21.7062000000	  12.6965000000	  26.8284000000
H	  20.2304000000	  13.2873000000	  19.2750000000
H	  20.8024000000	  11.7047000000	  19.7535000000
H	  19.1700000000	  12.3505000000	  20.2385000000
H	  18.2532000000	  12.0819000000	  26.2330000000
H	  17.8744000000	  13.4348000000	  27.1860000000
H	  18.6117000000	  13.8533000000	  25.6592000000
S	  14.6349000000	   6.0408300000	  31.8858000000
S	  16.2289000000	   6.9839100000	  30.6448000000
S	  16.8598000000	   6.0444500000	  28.8729000000
S	  16.4883000000	   8.7047200000	  24.0503000000
S	  16.5987000000	  10.9340000000	  23.8717000000
S	  18.4855000000	  11.5505000000	  23.1783000000
S	  16.9172000000	   8.2014000000	  26.1108000000
S	  15.8535000000	   6.6057200000	  27.1086000000
S	  19.8165000000	   4.5583300000	  12.7488000000
S	  19.5082000000	   4.9447300000	  14.9072000000
S	  19.9361000000	   6.9055200000	  15.6449000000
S	  21.4109000000	   8.5761700000	  19.6970000000
S	  21.6154000000	   8.7707600000	  21.8193000000
S	  22.2677000000	  10.6611000000	  22.5555000000
S	  20.3946000000	   6.8385000000	  19.1438000000
S	  19.0345000000	   7.2703300000	  17.5015000000
