50

Li	  14.5000000000	  45.2583000000	  27.2403000000
O	  14.7494000000	  43.6555000000	  28.4621000000
O	  15.3106000000	  42.1795000000	  30.0371000000
C	  14.5334000000	  42.3884000000	  27.8926000000
C	  15.3155000000	  41.4833000000	  28.7326000000
C	  14.7777000000	  43.4981000000	  29.8538000000
H	  13.4760000000	  42.0726000000	  27.9761000000
H	  14.7052000000	  42.4669000000	  26.8071000000
H	  14.8439000000	  40.5429000000	  28.7996000000
H	  16.3722000000	  41.3462000000	  28.3720000000
H	  15.4590000000	  44.2594000000	  30.3491000000
H	  13.7411000000	  43.4994000000	  30.2731000000
O	  14.5803000000	  47.1823000000	  27.7245000000
O	  12.7891000000	  45.4562000000	  28.5149000000
O	  16.4980000000	  45.3655000000	  27.1983000000
C	  13.6001000000	  47.7538000000	  28.6524000000
C	  15.9408000000	  47.4761000000	  27.9867000000
C	  12.4046000000	  46.8178000000	  28.5470000000
C	  16.6856000000	  46.7518000000	  26.8356000000
C	  11.6889000000	  44.5423000000	  28.4828000000
C	  17.4309000000	  44.5408000000	  26.5019000000
H	  14.0398000000	  47.8211000000	  29.6298000000
H	  13.3576000000	  48.7625000000	  28.3518000000
H	  16.1102000000	  48.5902000000	  27.8904000000
H	  16.2244000000	  47.3190000000	  29.0176000000
H	  11.6541000000	  47.0071000000	  29.3177000000
H	  11.8243000000	  47.0481000000	  27.6245000000
H	  16.2400000000	  46.8949000000	  25.8302000000
H	  17.6427000000	  47.1761000000	  26.8359000000
H	  10.9062000000	  44.7393000000	  27.7458000000
H	  11.9920000000	  43.5533000000	  28.1301000000
H	  11.1475000000	  44.4900000000	  29.4111000000
H	  17.3745000000	  43.5031000000	  26.8054000000
H	  17.1952000000	  44.6394000000	  25.4134000000
H	  18.4363000000	  45.0216000000	  26.5683000000
N	  13.8410000000	  46.0564000000	  22.9490000000
S	  14.3973000000	  47.4452000000	  22.6463000000
O	  13.8431000000	  47.8636000000	  21.3617000000
O	  14.3609000000	  48.4286000000	  23.6510000000
C	  16.1472000000	  46.9285000000	  22.3447000000
F	  16.3652000000	  45.9771000000	  21.4498000000
F	  16.6783000000	  46.4768000000	  23.4581000000
F	  16.8646000000	  47.9177000000	  21.9630000000
S	  13.0604000000	  45.6315000000	  24.2063000000
O	  11.6366000000	  45.8702000000	  24.1224000000
O	  13.8303000000	  45.7192000000	  25.4441000000
C	  13.2325000000	  43.8663000000	  24.1821000000
F	  14.4878000000	  43.4792000000	  24.3502000000
F	  12.5964000000	  43.2061000000	  25.1538000000
F	  12.8316000000	  43.3724000000	  23.0634000000
