55

Li	  57.0966000000	  15.1846000000	  21.2012000000
O	  56.1279000000	  14.1826000000	  22.8489000000
O	  57.7512000000	  16.2271000000	  22.4654000000
O	  57.7637000000	  11.5899000000	  22.3689000000
C	  56.4753000000	  14.9444000000	  24.0310000000
C	  55.7526000000	  12.8362000000	  23.1900000000
C	  56.8335000000	  16.3882000000	  23.4735000000
C	  56.9219000000	  11.9025000000	  23.5021000000
C	  58.3579000000	  17.4196000000	  21.9562000000
C	  58.5470000000	  10.4056000000	  22.4846000000
H	  55.6243000000	  15.0393000000	  24.6467000000
H	  57.3752000000	  14.5438000000	  24.6001000000
H	  55.0637000000	  12.7765000000	  24.0142000000
H	  55.3695000000	  12.4154000000	  22.3265000000
H	  55.8990000000	  16.8769000000	  23.0706000000
H	  57.3562000000	  16.9508000000	  24.2718000000
H	  57.4761000000	  12.3449000000	  24.3351000000
H	  56.4039000000	  10.9409000000	  23.7334000000
H	  59.2160362414	  17.1939000000	  21.3753000000
H	  57.6102000000	  17.8309000000	  21.2769000000
H	  58.6598000000	  18.0906000000	  22.8106000000
H	  57.9701000000	   9.5503500000	  22.7954000000
H	  59.0161000000	  10.1577000000	  21.5385000000
H	  59.2745862414	  10.5449000000	  23.2657000000
O	  61.9000562414	  14.5429000000	  20.6678000000
O	  58.8315000000	  14.5820000000	  20.3651000000
O	  63.2247862414	  16.2875000000	  18.9996000000
C	  60.8806662414	  14.6399000000	  21.6711000000
C	  63.0659362414	  15.2878000000	  21.0999000000
C	  59.6659562414	  13.8355000000	  21.1978000000
C	  63.9435162414	  15.5197000000	  19.8866000000
C	  59.3140462414	  14.6621000000	  19.0817000000
C	  63.9302862414	  17.0812000000	  18.0809000000
H	  61.2381862414	  14.1724000000	  22.6482000000
H	  60.5958062414	  15.6794000000	  21.9513000000
H	  62.9363162414	  16.2141000000	  21.5265000000
H	  63.4772562414	  14.6082000000	  21.8356000000
H	  59.9635962414	  12.8807000000	  20.7210000000
H	  59.0816000000	  13.4940000000	  22.0395000000
H	  64.7869462414	  16.1644000000	  20.1482000000
H	  64.3755962414	  14.6213000000	  19.4553000000
H	  59.3647062414	  13.7138000000	  18.6183000000
H	  58.6088000000	  15.3417000000	  18.5662000000
H	  60.3107062414	  15.0862000000	  18.9380000000
H	  64.4383062414	  16.3505000000	  17.4436000000
H	  63.2925462414	  17.6364000000	  17.3907000000
H	  64.7689662414	  17.6278000000	  18.5917000000
S	  55.6903000000	  15.9217000000	  19.9315000000
S	  55.8041000000	  17.8930000000	  19.0463000000
S	  55.2436000000	  19.4064000000	  20.4324000000
S	  50.5847000000	  19.8072000000	  18.5256000000
S	  48.6146000000	  19.4522000000	  19.0471000000
S	  48.1430000000	  17.4495000000	  18.9070000000
S	  51.7237000000	  20.1954000000	  20.2285000000
S	  53.7619000000	  20.7745000000	  19.7442000000
