47

Li	  47.9387000000	  34.6095000000	   3.0707800000
O	  49.2879000000	  33.1829000000	   3.1259100000
O	  47.1885000000	  33.8786000000	   4.6267500000
O	  49.1756000000	  34.8930000000	   1.2339900000
C	  49.4509000000	  33.0652000000	   4.5211800000
C	  50.4803000000	  33.3821000000	   2.4569900000
C	  48.0944000000	  32.8722000000	   5.1148300000
C	  50.1082000000	  33.8413000000	   1.0265400000
C	  45.9503000000	  34.0172000000	   5.3850800000
C	  48.6814000000	  35.4801000000	   0.1063495205
H	  50.1155000000	  32.3296000000	   4.8483800000
H	  49.7066000000	  33.9728000000	   5.0036800000
H	  51.0760000000	  34.2601000000	   2.8165200000
H	  51.1057000000	  32.4594000000	   2.3702500000
H	  47.6568000000	  31.9778000000	   4.7500600000
H	  48.1244000000	  32.8237000000	   6.2263600000
H	  51.0047000000	  34.1292000000	   0.4855495205
H	  49.4977000000	  33.0550000000	   0.4561495205
H	  45.3924000000	  33.0813000000	   5.2448800000
H	  46.1184000000	  33.9542000000	   6.4381000000
H	  45.4589000000	  34.9217000000	   5.2116600000
H	  49.4086000000	  35.7768000000	  -0.6758504795
H	  47.9276000000	  34.8149000000	  -0.2859504795
H	  48.0583000000	  36.3617000000	   0.2953495205
O	  46.5953000000	  35.9201000000	   2.8249900000
O	  46.3912000000	  33.5290000000	   1.5918000000
O	  49.1245000000	  36.5205000000	   3.7712500000
C	  45.4606000000	  35.7817000000	   2.0095100000
C	  46.7613000000	  37.2383000000	   3.2158600000
C	  45.1856000000	  34.2751000000	   1.8566200000
C	  47.9255000000	  37.2388000000	   4.2533100000
C	  46.1970000000	  32.1473000000	   1.7810500000
C	  50.2619000000	  37.0002000000	   4.3486400000
H	  44.6673000000	  36.1002000000	   2.5699100000
H	  45.5130000000	  36.1639000000	   0.9855700000
H	  46.8040000000	  37.8767000000	   2.3585800000
H	  45.8405000000	  37.6630000000	   3.6530100000
H	  44.7157000000	  33.9012000000	   2.7097700000
H	  44.5458000000	  34.0696000000	   1.0470500000
H	  48.0696000000	  38.2902000000	   4.5431300000
H	  47.5133000000	  36.8864000000	   5.1967900000
H	  45.5278000000	  31.9616000000	   2.6663000000
H	  45.7451000000	  31.8354000000	   0.9043800000
H	  47.2014000000	  31.6926000000	   1.9065100000
H	  50.4233000000	  38.0043000000	   3.9434500000
H	  50.2397000000	  37.0380000000	   5.3808500000
H	  51.1100000000	  36.4332000000	   4.1119800000
