42

Li	  38.7568000000	  55.5007000000	  18.9549000000
O	  40.2581000000	  54.4652000000	  18.0152000000
O	  42.1352000000	  53.1674000000	  17.7615000000
C	  40.0082000000	  53.2934000000	  17.2548000000
C	  41.4218000000	  52.9334000000	  16.6599000000
C	  41.5173000000	  54.2329000000	  18.4718000000
H	  39.6695000000	  52.4680000000	  17.8461000000
H	  39.2695000000	  53.3846000000	  16.4678000000
H	  41.4474000000	  51.9338000000	  16.2033000000
H	  41.8053000000	  53.6601000000	  15.9264000000
H	  42.0431000000	  55.2124000000	  18.4777000000
H	  41.4629000000	  53.8637000000	  19.5284000000
O	  41.1442000000	  58.4181000000	  20.8883000000
O	  39.9142000000	  56.5729000000	  20.2168000000
C	  40.7408000000	  57.7131000000	  22.0641000000
C	  40.4827000000	  56.3417000000	  21.4969000000
C	  40.6657000000	  57.7019000000	  19.7855000000
H	  41.5409000000	  57.7780000000	  22.8101000000
H	  39.8443000000	  58.1921000000	  22.4615000000
H	  41.3850000000	  55.7929000000	  21.4180000000
H	  39.8043000000	  55.8020000000	  22.1737000000
H	  40.0921000000	  58.3181000000	  19.1018000000
H	  41.6150000000	  57.4986000000	  19.2912000000
O	  36.3975000000	  51.8564000000	  19.8150000000
O	  37.7905000000	  53.6180000000	  19.7572000000
C	  37.5364000000	  51.3560000000	  20.4418000000
C	  38.4643000000	  52.6507000000	  20.5367000000
C	  36.4372000000	  53.2312000000	  19.8416000000
H	  37.2558000000	  50.9259000000	  21.3976000000
H	  38.0272000000	  50.5905000000	  19.7815000000
H	  38.5279000000	  53.0875000000	  21.5614000000
H	  39.5045000000	  52.5481000000	  20.3372000000
H	  35.9278000000	  53.8206000000	  19.0690000000
H	  35.9083000000	  53.5773000000	  20.8142000000
S	  36.9864000000	  56.9597000000	  19.2035000000
S	  38.0991000000	  57.2735000000	  17.4802000000
S	  36.7367000000	  57.4269000000	  15.7629000000
S	  36.1911000000	  60.4966201062	  11.7354000000
S	  34.0773000000	  60.4746201062	  11.5501000000
S	  33.6042000000	  59.2478461062	   9.8937800000
S	  36.6970000000	  60.1450201062	  13.7570000000
S	  37.5237000000	  58.2850000000	  14.1213000000
