58

Li	   6.0055800000	  30.4024000000	  11.5008000000
O	   4.7114100000	  31.8992000000	  11.0199000000
O	   2.5647600000	  32.5742000000	  11.0766000000
C	   4.7257100000	  33.2485000000	  11.3753000000
C	   3.2306100000	  33.7100000000	  11.5202000000
C	   3.4556700000	  31.8352000000	  10.3935000000
H	   5.2371700000	  33.3718000000	  12.3426000000
H	   5.2817100000	  33.8969000000	  10.6661000000
H	   2.9246400000	  34.0246000000	  12.5355000000
H	   3.0991300000	  34.6337000000	  10.9562000000
H	   3.6251700000	  32.2804000000	   9.4176100000
H	   2.9726400000	  30.8556000000	  10.4106000000
O	   3.0754100000	  28.9057000000	  13.9402000000
O	   6.0302800000	  29.3245000000	  13.1862000000
O	   1.5187600000	  27.2712000000	  12.1999000000
C	   3.8504100000	  30.0481000000	  13.9480000000
C	   1.7515100000	  29.2529000000	  13.6461000000
C	   5.2242700000	  29.5068000000	  14.3622000000
C	   1.0216200000	  27.9379000000	  13.3914000000
C	   7.4207700000	  28.9689000000	  13.4253000000
C	   0.4879137586	  26.4652000000	  11.6306000000
H	   3.9008100000	  30.4735000000	  12.9124000000
H	   3.4520900000	  30.7337000000	  14.6065000000
H	   1.4240300000	  29.9510000000	  14.4552000000
H	   1.8049800000	  29.8672000000	  12.7371000000
H	   5.7155900000	  30.1543000000	  15.0822000000
H	   5.1621200000	  28.5485000000	  14.9465000000
H	   1.0903500000	  27.2306000000	  14.2302000000
H	  -0.0270862414	  28.1323000000	  13.4015000000
H	   7.4047100000	  28.3255000000	  14.3290000000
H	   7.7718500000	  28.4108000000	  12.4897000000
H	   7.9612600000	  29.8887000000	  13.5266000000
H	  -0.4434862414	  27.0069000000	  11.4441000000
H	   0.8394137586	  25.9141000000	  10.7576000000
H	   0.1535137586	  25.7236000000	  12.3335000000
O	   7.5639500000	  30.1481000000	  10.4231000000
O	   5.3859100000	  28.8593000000	  10.5163000000
O	   7.8479800000	  32.5046000000	  12.0051000000
C	   6.9824800000	  29.8248000000	   9.2092200000
C	   8.5758600000	  31.1028000000	  10.2320000000
C	   6.3142300000	  28.4964000000	   9.5103000000
C	   8.9344600000	  31.7685000000	  11.5232000000
C	   4.7728700000	  27.7163000000	  10.9785000000
C	   8.0916700000	  33.0936000000	  13.2482000000
H	   6.1162000000	  30.4844000000	   8.9774600000
H	   7.5865000000	  29.7523000000	   8.2733300000
H	   9.5401500000	  30.8076000000	   9.7268200000
H	   8.2201300000	  31.8564000000	   9.5059000000
H	   5.8020000000	  28.1803000000	   8.6890400000
H	   7.0091900000	  27.7121000000	   9.8349800000
H	   9.1995800000	  30.9793000000	  12.1997000000
H	   9.8496000000	  32.3797000000	  11.4889000000
H	   5.4905400000	  27.0352000000	  11.5416000000
H	   4.0528800000	  28.0627000000	  11.6724000000
H	   4.2335900000	  27.1887000000	  10.1501000000
H	   7.9424800000	  32.2652000000	  13.9372000000
H	   8.9863300000	  33.5866000000	  13.3600000000
H	   7.2849000000	  33.6681000000	  13.4991000000
