50

Li	  51.8582000000	  34.9106000000	  44.9243000000
O	  50.7587000000	  35.9281000000	  43.7847000000
O	  48.9566000000	  36.0827000000	  42.3692000000
C	  51.1057000000	  36.9097000000	  42.7657000000
C	  49.8632000000	  37.0418000000	  41.8785000000
C	  49.3961000000	  35.8156000000	  43.6914000000
H	  51.4145000000	  37.8830000000	  43.1589000000
H	  51.9298000000	  36.4841000000	  42.2175000000
H	  49.4321000000	  37.9815000000	  41.6541000000
H	  50.0988000000	  36.7711000000	  40.8490000000
H	  49.0332000000	  34.8658000000	  44.0608000000
H	  48.9437000000	  36.5766000000	  44.2709000000
N	  55.3405000000	  36.4918000000	  43.3507000000
S	  55.9868000000	  37.3977000000	  44.5241000000
O	  56.0559000000	  36.7967000000	  45.8535000000
O	  57.1691000000	  38.1714000000	  44.0399000000
C	  54.6854000000	  38.7578000000	  44.6660000000
F	  53.5037000000	  38.3320000000	  44.9858000000
F	  54.5561000000	  39.4591000000	  43.5355000000
F	  54.9946000000	  39.6734000000	  45.5315000000
S	  54.7680000000	  35.1096000000	  43.5521000000
O	  53.3534000000	  35.1383000000	  43.9651000000
O	  55.6619000000	  34.2805000000	  44.3214000000
C	  54.8687000000	  34.5451000000	  41.7910000000
F	  54.2323000000	  35.3712000000	  41.0230000000
F	  56.0842000000	  34.5465000000	  41.2891000000
F	  54.2887000000	  33.4409000000	  41.5305000000
N	  52.3677000000	  30.9148000000	  43.5014000000
S	  53.6287000000	  31.1635000000	  44.4315000000
O	  54.9109000000	  31.2706000000	  43.7123000000
O	  53.3382000000	  31.9939000000	  45.5799000000
C	  53.7751000000	  29.4991000000	  45.1581000000
F	  54.8279000000	  29.2533000000	  45.9249000000
F	  53.7422000000	  28.5612000000	  44.1974000000
F	  52.7165000000	  29.2643000000	  45.8870000000
S	  51.2362000000	  31.8943000000	  43.1082000000
O	  50.8256000000	  31.8672000000	  41.7194000000
O	  51.2114000000	  33.1752000000	  43.8278000000
C	  49.9747000000	  30.9887000000	  43.9299000000
F	  50.2111000000	  30.9393000000	  45.2167000000
F	  48.8225000000	  31.6246000000	  43.8172000000
F	  49.9299000000	  29.7379000000	  43.4880000000
S	  55.5266000000	  35.3493000000	  53.3945000000
S	  54.6337000000	  37.1908000000	  53.8200000000
S	  54.8839000000	  38.5774000000	  52.1859000000
S	  51.8962000000	  37.0412000000	  48.8575000000
S	  52.3095000000	  35.7754000000	  47.2200000000
S	  50.8111000000	  34.3388000000	  46.8986000000
S	  53.1207000000	  38.7599000000	  49.1696000000
S	  53.0526000000	  39.2238000000	  51.2045000000
