50

Li	  22.9354000000	  37.1662000000	   1.5158600000
O	  23.9800000000	  36.5987000000	   3.0020900000
O	  23.8743000000	  34.8978000000	   4.3099700000
C	  25.1794000000	  35.8496000000	   2.7238900000
C	  25.1126000000	  34.6509000000	   3.6199900000
C	  23.5531000000	  36.2060000000	   4.2239900000
H	  25.2718000000	  35.6460000000	   1.7031200000
H	  26.1278000000	  36.3379000000	   2.9695600000
H	  25.0753000000	  33.7453000000	   2.9835700000
H	  25.8806000000	  34.5887000000	   4.3681000000
H	  23.9659000000	  36.7512000000	   5.0450100000
H	  22.4736000000	  36.3265000000	   4.3460200000
O	  22.9233000000	  38.6323000000	   0.5673495205
O	  23.7591000000	  36.4515000000	  -0.3712504795
O	  20.5864000000	  39.6854000000	   2.3046800000
C	  23.7727000000	  38.7695000000	  -0.5390504795
C	  22.7114000000	  39.8329000000	   1.3524000000
C	  23.7160000000	  37.4716000000	  -1.3533504795
C	  21.9996000000	  39.7011000000	   2.6647500000
C	  23.7114000000	  35.2095000000	  -0.9784504795
C	  19.7559000000	  39.9719000000	   3.4280400000
H	  23.4426000000	  39.5903000000	  -1.1840504795
H	  24.7787000000	  38.9537000000	  -0.1657504795
H	  23.7189000000	  40.1791000000	   1.5699100000
H	  22.1776000000	  40.5118000000	   0.6747495205
H	  22.7966000000	  37.4034000000	  -1.9249504795
H	  24.4950000000	  37.5203000000	  -2.0524504795
H	  22.3262000000	  38.7850000000	   3.2110800000
H	  22.1985000000	  40.4641000000	   3.3462100000
H	  23.3570000000	  34.4337000000	  -0.2834504795
H	  22.9600000000	  35.2554000000	  -1.8112504795
H	  24.6949000000	  34.9137000000	  -1.3050504795
H	  18.7472000000	  39.8766000000	   3.0505700000
H	  19.8600000000	  39.2630000000	   4.2277200000
H	  19.8426000000	  40.9594000000	   3.9020300000
N	  19.5524000000	  35.7545000000	   3.0044000000
S	  18.1750000000	  35.8045000000	   3.7769200000
O	  18.0096000000	  36.9639000000	   4.6310100000
O	  17.0735000000	  35.3896000000	   3.0340100000
C	  18.3109000000	  34.5464000000	   5.1065600000
F	  17.3102000000	  34.4988000000	   5.9221900000
F	  19.3987000000	  34.8213000000	   5.8407800000
F	  18.5013000000	  33.3201000000	   4.6852800000
S	  19.9240000000	  35.9568000000	   1.4960200000
O	  21.1969000000	  36.6881000000	   1.2850400000
O	  18.7587000000	  36.4141000000	   0.7238495205
C	  20.2442000000	  34.1791000000	   1.0917400000
F	  19.4341000000	  33.3041000000	   1.6953500000
F	  20.1011000000	  33.9812000000	  -0.2256504795
F	  21.4807000000	  33.7953000000	   1.4421500000
