58

Li	  37.5892000000	  14.8577000000	  37.9693000000
O	  36.7799000000	  13.3357000000	  38.4342000000
O	  35.2111000000	  11.7887000000	  39.1330000000
C	  36.8175000000	  12.2491000000	  37.5682000000
C	  35.9854000000	  11.1262000000	  38.2121000000
C	  36.0372000000	  12.8348000000	  39.5697000000
H	  36.4434000000	  12.5976000000	  36.5932000000
H	  37.8524000000	  11.9049000000	  37.2869000000
H	  35.3259000000	  10.5279000000	  37.6135000000
H	  36.5409000000	  10.3667000000	  38.6668000000
H	  36.7432000000	  12.5933000000	  40.4005000000
H	  35.4358000000	  13.6257000000	  40.0884000000
O	  34.1349000000	  15.3364000000	  36.7197000000
O	  31.2291000000	  14.3474000000	  37.7439000000
O	  37.2037000000	  16.0857000000	  36.6675000000
C	  33.3921000000	  14.1552000000	  36.6886000000
C	  35.1059000000	  15.4510000000	  35.6399000000
C	  32.5949000000	  14.0622000000	  37.9901000000
C	  36.1806000000	  16.5537000000	  35.8304000000
C	  30.3354000000	  13.7444000000	  38.6931000000
C	  38.3778000000	  16.9077000000	  36.4370000000
H	  32.5801000000	  14.2278000000	  35.9796000000
H	  34.0294000000	  13.3507000000	  36.4847000000
H	  35.5245000000	  14.4026000000	  35.4142000000
H	  34.3341000000	  15.7548000000	  34.9224000000
H	  32.5512000000	  13.0470000000	  38.2234000000
H	  33.0395000000	  14.7214000000	  38.7776000000
H	  36.4769000000	  17.0135000000	  34.8949000000
H	  35.7627000000	  17.4666000000	  36.2629000000
H	  30.4348000000	  12.6618000000	  38.7347000000
H	  30.3905000000	  14.1050000000	  39.7226000000
H	  29.3396000000	  13.9382000000	  38.3785000000
H	  38.3349000000	  18.0273000000	  36.5242000000
H	  39.2470000000	  16.6933000000	  36.9988000000
H	  38.7789000000	  16.7461000000	  35.4256000000
O	  38.9571000000	  14.8423000000	  39.2168000000
O	  36.7760000000	  16.0517000000	  39.5690000000
O	  39.1636000000	  14.0676000000	  36.7935000000
C	  38.7607000000	  15.0066000000	  40.6184000000
C	  40.0978000000	  13.9460000000	  38.9962000000
C	  37.5949000000	  16.0857000000	  40.7138000000
C	  40.3840000000	  13.7988000000	  37.4554000000
C	  35.5969000000	  16.8345000000	  39.8713000000
C	  39.1938000000	  13.9118000000	  35.4112000000
H	  38.3924000000	  14.1020000000	  41.1152000000
H	  39.5490000000	  15.3297000000	  41.2003000000
H	  41.0145000000	  14.3137000000	  39.5446000000
H	  39.6995000000	  12.9750000000	  39.3295000000
H	  36.9858000000	  15.8862000000	  41.6103000000
H	  38.0800000000	  17.0435000000	  40.8431000000
H	  41.2548000000	  14.4160000000	  37.2516000000
H	  40.6744000000	  12.7719000000	  37.2620000000
H	  34.9716000000	  16.4257000000	  40.6156000000
H	  35.7854000000	  17.8136000000	  40.2422000000
H	  35.0889000000	  16.8190000000	  38.8732000000
H	  39.2633000000	  12.7875000000	  35.2299000000
H	  38.1386000000	  14.1646000000	  35.1309000000
H	  39.9249000000	  14.5386000000	  34.9228000000
