42

Li	  52.9203000000	  14.2350000000	  27.3264000000
O	  54.2418000000	  13.1389000000	  26.7712000000
O	  55.8434000000	  11.5468000000	  27.0419000000
C	  55.2483000000	  13.5386000000	  25.9587000000
C	  56.4274000000	  12.7590000000	  26.5559000000
C	  54.4467000000	  11.7855000000	  27.0088000000
H	  55.1203000000	  13.1614000000	  24.8869000000
H	  55.4715000000	  14.6404000000	  25.9990000000
H	  57.2752000000	  12.6782000000	  25.8572000000
H	  56.7568000000	  13.2106000000	  27.4412000000
H	  54.0560000000	  11.4981000000	  28.0418000000
H	  53.9174000000	  11.2446000000	  26.1778000000
O	  53.6888000000	  12.6598000000	  30.8926000000
O	  52.9323000000	  13.6990000000	  29.1552000000
C	  52.3977000000	  12.2803000000	  30.8380000000
C	  51.7697000000	  13.1601000000	  29.7637000000
C	  53.6482000000	  13.8429000000	  30.2393000000
H	  52.5247000000	  11.2675000000	  30.5903000000
H	  51.9196000000	  12.0893000000	  31.8008000000
H	  51.0470000000	  12.5058000000	  29.2315000000
H	  51.1751000000	  13.9878000000	  30.0983000000
H	  53.2108000000	  14.5697000000	  30.8506000000
H	  54.6926000000	  14.2154000000	  29.9290000000
O	  51.6334000000	  13.5502000000	  25.5174000000
O	  49.6841000000	  13.5179000000	  24.2614000000
C	  51.7042000000	  12.4985000000	  24.5707000000
C	  50.5894000000	  12.6798000000	  23.5464000000
C	  50.5460000000	  14.3015000000	  25.0683000000
H	  52.7141000000	  12.6446000000	  24.2217000000
H	  51.5449000000	  11.5369000000	  25.0334000000
H	  50.9790000000	  13.1780000000	  22.6902000000
H	  50.1820000000	  11.7056000000	  23.2738000000
H	  49.9552000000	  14.7018000000	  25.8737000000
H	  50.8439000000	  15.1653000000	  24.4766000000
S	  48.2489000000	  20.5344000000	  18.7545000000
S	  49.1114000000	  19.1289000000	  20.1733000000
S	  48.8399000000	  19.8102000000	  22.1626000000
S	  50.8186000000	  18.4782000000	  26.2899000000
S	  51.2819000000	  16.8944000000	  27.6454000000
S	  53.2369000000	  16.2559000000	  27.3159000000
S	  48.8681000000	  18.6576000000	  25.5338000000
S	  48.6713000000	  18.1661000000	  23.4823000000
