46

Li	  29.0143000000	   4.8022800000	  53.1354000000
O	  25.1228000000	   4.7356600000	  52.9331000000
O	  27.2268000000	   4.5246900000	  53.7027000000
C	  25.2465000000	   5.7542300000	  53.9382000000
C	  26.6815000000	   5.6220000000	  54.5149000000
C	  26.1320000000	   3.7923800000	  53.2590000000
H	  25.2133000000	   6.7345300000	  53.4696000000
H	  24.4613000000	   5.7088400000	  54.7382000000
H	  27.1955000000	   6.5431900000	  54.3386000000
H	  26.6512000000	   5.4640200000	  55.5439000000
H	  25.8416000000	   3.0985500000	  54.0565000000
H	  26.3566000000	   3.0787200000	  52.3563000000
O	  32.5724000000	   3.1803700000	  54.2128000000
O	  30.4827000000	   3.5539200000	  53.3372000000
C	  31.6768000000	   2.1793000000	  54.6124000000
C	  30.5399000000	   2.1702000000	  53.5713000000
C	  31.7988000000	   3.8316800000	  53.2738000000
H	  32.1841000000	   1.2088000000	  54.6150000000
H	  31.2526000000	   2.4383900000	  55.6154000000
H	  30.8310000000	   1.5868700000	  52.6457000000
H	  29.6202000000	   1.7721700000	  53.8325000000
H	  31.7792000000	   4.8446100000	  53.3754000000
H	  32.2609000000	   3.5832700000	  52.3091000000
O	  29.1517000000	   6.3548400000	  51.8703000000
O	  29.8107000000	   6.0614600000	  54.4174000000
O	  28.8220000000	   3.6635900000	  51.1513000000
C	  30.0112000000	   7.3071200000	  52.3940000000
C	  29.4892000000	   5.9192100000	  50.5809000000
C	  29.7275000000	   7.4326500000	  53.8677000000
C	  28.5513000000	   4.7113800000	  50.2220000000
C	  29.8783000000	   5.9557500000	  55.8524000000
C	  28.3984000000	   2.4010300000	  50.6492000000
H	  31.0161000000	   7.0512100000	  52.3505000000
H	  29.9295000000	   8.2268700000	  51.8952000000
H	  29.2739000000	   6.6959700000	  49.8278000000
H	  30.5149000000	   5.5087800000	  50.6453000000
H	  30.3981000000	   8.1699500000	  54.3299000000
H	  28.7824000000	   7.9656300000	  54.0255000000
H	  27.4937000000	   5.0009700000	  50.3798000000
H	  28.8276000000	   4.4131300000	  49.2081000000
H	  30.0131000000	   5.0149600000	  56.2820000000
H	  30.8248000000	   6.4733300000	  56.0581000000
H	  29.1634000000	   6.4458100000	  56.4989000000
H	  27.3559000000	   2.4798300000	  50.2014000000
H	  29.1179000000	   2.1787700000	  49.9727000000
H	  28.3064000000	   1.6652000000	  51.4125000000
