39

Li	  28.3023000000	  20.8529000000	  35.3310000000
O	  29.6463000000	  20.0224000000	  34.4121000000
O	  29.7146000000	  20.7774000000	  36.8261000000
O	  27.4325000000	  20.7817000000	  33.4878000000
C	  30.9083000000	  19.9305000000	  34.9237000000
C	  29.5821000000	  20.0351000000	  32.9133000000
C	  30.6255000000	  19.7369000000	  36.3856000000
C	  28.1477000000	  19.8685000000	  32.6406000000
C	  29.3937000000	  20.7601000000	  38.2147000000
C	  26.1193000000	  21.0760000000	  33.1056000000
H	  31.4134000000	  19.1047000000	  34.6020000000
H	  31.4931000000	  20.8238000000	  34.8244000000
H	  29.9408000000	  21.0099000000	  32.5366000000
H	  30.0068000000	  19.2307000000	  32.3783000000
H	  30.2646000000	  18.7581000000	  36.6773000000
H	  31.5786000000	  19.7949000000	  36.9178000000
H	  27.8555000000	  20.0809000000	  31.6276000000
H	  27.8234000000	  18.8375000000	  32.8992000000
H	  30.2400000000	  20.9377000000	  38.8792000000
H	  28.6252000000	  21.5231000000	  38.3293000000
H	  28.9360000000	  19.8449000000	  38.5845000000
H	  25.7063000000	  21.5787000000	  33.9559000000
H	  26.0294000000	  21.6671000000	  32.1804000000
H	  25.5583000000	  20.1142000000	  33.0617000000
N	  25.2888000000	  22.3907000000	  36.8102000000
S	  25.2652000000	  20.8523000000	  36.6799000000
O	  24.3275000000	  20.4083000000	  35.6984000000
O	  26.5690000000	  20.2051000000	  36.5328000000
C	  24.5899000000	  20.3788000000	  38.2839000000
F	  24.1580000000	  19.1014000000	  38.2251000000
F	  23.5559000000	  21.1721000000	  38.6062000000
F	  25.4848000000	  20.4850000000	  39.2651000000
S	  26.3477000000	  23.3360000000	  36.1719000000
O	  25.7977000000	  24.2077000000	  35.1867000000
O	  27.5787000000	  22.6709000000	  35.7873000000
C	  26.7921000000	  24.3939000000	  37.6498000000
F	  27.7864000000	  25.2959000000	  37.5124000000
F	  25.7704000000	  24.9674000000	  38.1566000000
F	  27.2717000000	  23.6279000000	  38.5990000000
