47

Li	  40.5775000000	  33.1226000000	  18.5741000000
O	  40.8541000000	  33.1784000000	  20.3652000000
O	  38.7502000000	  34.7048000000	  19.5703000000
O	  41.7769000000	  31.4418000000	  18.7342000000
C	  40.5499000000	  34.2804000000	  21.1837000000
C	  41.9989000000	  32.4516000000	  20.8442000000
C	  39.0964000000	  34.7872000000	  20.9600000000
C	  42.3146000000	  31.1899000000	  20.0538000000
C	  37.3376000000	  34.5017000000	  19.2521000000
C	  42.2157000000	  30.5152000000	  17.7459000000
H	  40.8415000000	  34.2337000000	  22.2328000000
H	  41.2374000000	  35.0581000000	  20.8388000000
H	  42.9128000000	  32.9983000000	  20.7492000000
H	  41.9013000000	  32.0851000000	  21.8944000000
H	  38.4077000000	  34.2401000000	  21.6740000000
H	  38.9916000000	  35.8602000000	  21.0976000000
H	  43.3377000000	  30.9604000000	  20.0748000000
H	  41.8150000000	  30.2859000000	  20.4439000000
H	  37.1817000000	  34.7099000000	  18.1406000000
H	  36.9119000000	  33.5357000000	  19.4697000000
H	  36.7547000000	  35.2194000000	  19.7847000000
H	  42.1689000000	  30.6904000000	  16.7326000000
H	  43.1955000000	  30.1999000000	  18.0566000000
H	  41.5743000000	  29.6081000000	  17.9366000000
O	  39.7222000000	  32.7050000000	  17.0602000000
O	  38.6362000000	  31.4747000000	  19.2024000000
O	  41.5446000000	  34.5019000000	  17.8952000000
C	  38.5034000000	  31.9279000000	  16.8942000000
C	  39.8338000000	  33.7815000000	  16.2055000000
C	  38.3664000000	  30.8252000000	  17.9289000000
C	  41.2742000000	  34.2900000000	  16.4725000000
C	  38.2581000000	  30.7404000000	  20.3804000000
C	  42.7448000000	  35.1677000000	  18.2270000000
H	  37.5801000000	  32.5793000000	  17.0654000000
H	  38.3464000000	  31.4082000000	  15.9048000000
H	  39.7112000000	  33.4114000000	  15.1983000000
H	  39.0403000000	  34.4702000000	  16.3732000000
H	  37.3701000000	  30.3792000000	  17.8265000000
H	  39.0683000000	  30.0005000000	  17.6965000000
H	  41.9970000000	  33.6558000000	  15.9951000000
H	  41.4066000000	  35.2932000000	  15.9761000000
H	  38.8970000000	  31.0687000000	  21.2537000000
H	  37.1132000000	  30.8690000000	  20.5301000000
H	  38.4422000000	  29.7007000000	  20.2023000000
H	  42.8873000000	  35.5412000000	  19.2875000000
H	  43.5591000000	  34.5161000000	  17.9334000000
H	  42.7667000000	  36.0145000000	  17.5654000000
