35

Li	  51.7834000000	  33.7198000000	  30.0381000000
O	  54.2597000000	  36.2460000000	  29.1655000000
O	  53.1764000000	  35.1820000000	  30.6926000000
C	  53.5101000000	  37.2645000000	  29.8261000000
C	  53.0005000000	  36.5285000000	  31.1267000000
C	  54.3185000000	  35.1680000000	  29.9679000000
H	  54.1717000000	  38.1630000000	  30.0870000000
H	  52.7147000000	  37.5072000000	  29.1439000000
H	  53.6518000000	  36.7799000000	  31.9208000000
H	  51.9664000000	  36.7446000000	  31.5004000000
H	  54.4498000000	  34.2968000000	  29.3578000000
H	  55.1438000000	  35.3713000000	  30.6769000000
O	  50.6655000000	  32.1888000000	  29.4187000000
O	  51.0361000000	  34.5072000000	  28.2698000000
O	  50.4345000000	  34.1229000000	  31.3366000000
C	  50.3942000000	  32.3271000000	  28.0477000000
C	  49.5064000000	  32.1891000000	  30.2558000000
C	  51.1926000000	  33.5095000000	  27.3465000000
C	  49.9595000000	  32.8734000000	  31.6045000000
C	  51.0221000000	  35.8343000000	  27.7533000000
C	  49.4658000000	  35.1390000000	  31.2288000000
H	  50.6322000000	  31.4007000000	  27.6057000000
H	  49.3055000000	  32.4228000000	  27.9292000000
H	  48.6375000000	  32.7370000000	  29.7877000000
H	  49.1423000000	  31.1471000000	  30.5326000000
H	  52.2720000000	  33.4214000000	  27.1856000000
H	  50.7062000000	  33.8348000000	  26.4078000000
H	  49.1021000000	  32.8473000000	  32.2478000000
H	  50.6936000000	  32.2442000000	  32.0210000000
H	  50.7610000000	  36.4701000000	  28.5019000000
H	  52.0252000000	  35.9797000000	  27.3611000000
H	  50.2584000000	  36.0872000000	  27.0273000000
H	  48.6891000000	  34.7580000000	  30.5697000000
H	  49.0501000000	  35.4675000000	  32.1737000000
H	  49.9786000000	  35.9934000000	  30.7751000000
