33

Li	  29.1262000000	  38.7651000000	  35.8939000000
N	  29.2677000000	  34.9615000000	  37.4946000000
N	  29.1638000000	  37.0477000000	  36.8319000000
C	  28.7679000000	  35.6567000000	  38.5625000000
C	  29.5757000000	  33.5567000000	  37.5920000000
C	  29.5033000000	  35.8138000000	  36.5006000000
C	  28.5888000000	  36.9568000000	  38.0954000000
H	  29.8697000000	  33.1404000000	  36.6269000000
H	  30.3775000000	  33.4119000000	  38.3304000000
H	  28.7964000000	  33.0099000000	  37.9446000000
H	  28.3718000000	  35.2090000000	  39.4778000000
H	  29.9589000000	  35.5437000000	  35.6239000000
H	  28.1516000000	  37.7852000000	  38.4891000000
N	  26.6816000000	  41.7085000000	  37.6972000000
N	  28.1541000000	  40.0981000000	  37.0372000000
C	  27.9421000000	  42.2168000000	  37.8214000000
C	  25.5263000000	  42.4816000000	  37.9419000000
C	  26.8680000000	  40.4255000000	  37.2775000000
C	  28.8329000000	  41.2540000000	  37.4142000000
H	  24.7380000000	  41.9933000000	  38.6067000000
H	  25.8273000000	  43.4044000000	  38.4275000000
H	  25.1274000000	  42.7228000000	  36.9579000000
H	  28.0993000000	  43.2827000000	  38.0115000000
H	  26.1012000000	  39.6079000000	  37.2353000000
H	  29.9113000000	  41.2946000000	  37.2721000000
S	  20.5257000000	  40.9700000000	  32.2168000000
S	  22.4285000000	  41.6618000000	  31.4497000000
S	  23.6760000000	  40.0611000000	  30.7789000000
S	  27.6679000000	  38.9067000000	  33.9274000000
S	  29.6992000000	  38.3551000000	  33.3925000000
S	  31.0773000000	  38.8763000000	  35.0137000000
S	  26.2885000000	  38.5826000000	  32.3257000000
S	  25.6786000000	  40.3622000000	  31.3038000000
