47

Li	  46.3656000000	  23.2301000000	  44.5519000000
O	  45.5258000000	  22.9623000000	  42.4676000000
O	  45.9567000000	  22.1809000000	  40.4327000000
C	  44.4792000000	  22.0773000000	  42.1372000000
C	  44.6737000000	  21.7600000000	  40.6887000000
C	  46.0814000000	  23.2873000000	  41.2397000000
H	  44.3875000000	  21.1366000000	  42.6797000000
H	  43.4755000000	  22.4497000000	  42.3094000000
H	  44.4578000000	  20.7194000000	  40.5435000000
H	  44.0485000000	  22.3964000000	  40.1128000000
H	  45.4324000000	  24.0532000000	  40.8185000000
H	  47.1502000000	  23.5165000000	  41.3200000000
N	  46.5558000000	  21.3510000000	  48.0921000000
N	  46.9523000000	  22.3112000000	  46.1068000000
C	  45.8737000000	  20.6659000000	  47.1074000000
C	  46.6225000000	  21.0426000000	  49.4554000000
C	  47.2057000000	  22.2985000000	  47.4160000000
C	  46.1734000000	  21.1929000000	  45.8912000000
H	  46.6857000000	  19.9503000000	  49.5799000000
H	  47.4395000000	  21.6157000000	  49.8596000000
H	  45.6301000000	  21.3711000000	  49.9902000000
H	  45.2047000000	  19.8333000000	  47.2653000000
H	  47.7764000000	  23.1584000000	  47.7488000000
H	  45.7994000000	  20.8948000000	  44.9642000000
N	  42.1557000000	  23.4914000000	  45.5681000000
S	  42.2191000000	  21.9667000000	  45.3777000000
O	  40.9266000000	  21.4772000000	  44.9460000000
O	  43.4760000000	  21.3177000000	  44.9940000000
C	  42.2589000000	  21.4770000000	  47.1826000000
F	  43.2568000000	  21.9926000000	  47.7788000000
F	  42.2851000000	  20.1772000000	  47.3625000000
F	  41.1616000000	  21.9914000000	  47.7182000000
S	  43.2750000000	  24.5658000000	  45.2735000000
O	  42.9023000000	  25.4431000000	  44.1854000000
O	  44.6211000000	  24.0408000000	  45.2524000000
C	  43.1686000000	  25.5861000000	  46.8294000000
F	  44.1182000000	  26.5886000000	  46.9478000000
F	  42.0325000000	  26.1866000000	  46.9044000000
F	  43.4564000000	  24.8779000000	  47.8650000000
S	  47.7959000000	  25.1122000000	  44.0138000000
S	  49.7559000000	  25.8289000000	  43.5601000000
S	  50.3236000000	  25.6079000000	  41.5256000000
S	  52.9460000000	  24.2995000000	  37.7856000000
S	  54.0454000000	  22.4993000000	  37.4495000000
S	  55.8764000000	  23.0357000000	  36.5367000000
S	  53.2904000000	  25.0975000000	  39.7409000000
S	  51.9701000000	  24.4157000000	  41.2646000000
