32

Li	  10.6185000000	  46.9725000000	   7.8899700000
O	   9.7762800000	  45.8743000000	  11.9428000000
O	  10.3048000000	  46.7540000000	   9.9690500000
C	  11.0484000000	  46.5006000000	  12.0206000000
C	  11.5953000000	  46.7334000000	  10.6376000000
C	   9.3390000000	  46.5505000000	  10.8783000000
H	  10.9779000000	  47.3970000000	  12.5840000000
H	  11.7206000000	  45.8600000000	  12.5865000000
H	  12.1056000000	  47.6821000000	  10.5157000000
H	  12.2435000000	  45.9173000000	  10.3242000000
H	   8.6190500000	  45.9752000000	  10.3379000000
H	   8.8848600000	  47.5037000000	  11.2750000000
N	  13.6091000000	  44.8220000000	   6.2658000000
N	  12.1057000000	  45.6469000000	   7.6246300000
C	  12.7457000000	  43.7352000000	   6.5886200000
C	  14.7304000000	  44.7870000000	   5.3195500000
C	  13.1178000000	  45.9554000000	   6.8728800000
C	  11.8559000000	  44.2735000000	   7.4910400000
H	  15.3131000000	  45.6679000000	   5.4983300000
H	  15.3719000000	  43.9120000000	   5.3291100000
H	  14.2625000000	  44.8378000000	   4.3528400000
H	  12.9096000000	  42.6399000000	   6.2501600000
H	  13.5444000000	  46.9497000000	   6.6773200000
H	  11.1036000000	  43.7269000000	   7.9968600000
S	   8.5567200000	  38.8969000000	   9.5599500000
S	   9.4793700000	  40.7369000000	   9.0894100000
S	   9.2062300000	  41.5615000000	   7.1794700000
S	   8.6574300000	  46.1848000000	   6.1167000000
S	   9.0854400000	  48.1517000000	   6.8696700000
S	  11.1017000000	  48.6508000000	   6.7113300000
S	   8.0985000000	  44.8494000000	   7.6695900000
S	   7.5086500000	  42.9043000000	   7.1005300000
