40

Li	  11.5059000000	  39.2806000000	  12.8810000000
N	  12.5698000000	  35.9970000000	  15.3615000000
N	  12.4490000000	  37.9118000000	  14.1426000000
C	  12.9841000000	  37.0457000000	  16.2035000000
C	  12.3943000000	  34.5689000000	  15.7160000000
C	  12.3044000000	  36.6097000000	  14.1482000000
C	  12.9084000000	  38.1785000000	  15.4061000000
H	  11.4189000000	  34.3090000000	  15.3833000000
H	  13.1649000000	  33.9939000000	  15.2475000000
H	  12.4199000000	  34.4417000000	  16.7625000000
H	  13.2872000000	  36.9359000000	  17.2514000000
H	  12.0631000000	  36.1253000000	  13.2130000000
H	  13.2217000000	  39.1879000000	  15.6274000000
N	  14.6002000000	  41.8110000000	  11.8602000000
N	  12.8179000000	  40.8187000000	  12.6870000000
C	  13.5434000000	  42.3401000000	  11.1470000000
C	  16.0028000000	  42.1858000000	  11.5646000000
C	  14.1207000000	  40.9435000000	  12.7384000000
C	  12.4815000000	  41.6130000000	  11.5696000000
H	  16.6557000000	  41.3696000000	  11.9313000000
H	  16.2566000000	  42.4845000000	  10.5194000000
H	  16.2323000000	  43.1701000000	  12.0443000000
H	  13.7691000000	  43.0400000000	  10.3886000000
H	  14.7137000000	  40.5544000000	  13.5579000000
H	  11.4680000000	  41.7149000000	  11.2502000000
N	   9.4646800000	  38.1530000000	  10.2176000000
S	  10.8457000000	  37.4416000000	  10.3652000000
O	  11.8966000000	  38.2653000000	  10.8814000000
O	  10.6732000000	  36.1191000000	  10.9646000000
C	  11.2940000000	  37.1977000000	   8.5266200000
F	  11.7389000000	  38.3035000000	   7.9520900000
F	  10.2507000000	  36.6618000000	   7.8758700000
F	  12.2828000000	  36.3803000000	   8.3431100000
S	   8.7110100000	  38.8696000000	  11.3117000000
O	   9.5589700000	  39.2294000000	  12.4003000000
O	   7.4255900000	  38.2164000000	  11.6522000000
C	   8.2850800000	  40.4407000000	  10.5516000000
F	   9.3193000000	  41.2211000000	  10.3755000000
F	   7.7183100000	  40.2902000000	   9.3645000000
F	   7.4563800000	  41.1203000000	  11.3172000000
