44

Li	   7.9545100000	   8.6548900000	  10.2055000000
O	   8.5215900000	   9.9442200000	   8.9122100000
O	   8.1556900000	  11.3727000000	   7.2189800000
C	   9.8403900000	  10.0471000000	   8.3060200000
C	   9.4924300000	  10.8178000000	   7.1048700000
C	   7.9060500000	  11.1122000000	   8.5727900000
H	  10.4377000000	  10.6746000000	   8.9904900000
H	  10.3929000000	   9.1621800000	   8.1244900000
H	  10.2094000000	  11.6021000000	   6.9268900000
H	   9.4648400000	  10.1459000000	   6.3088400000
H	   6.8722500000	  11.1135000000	   8.7905200000
H	   8.2689500000	  11.9285000000	   9.1531000000
N	   6.5716800000	   5.4563000000	   8.5806800000
N	   7.8868500000	   6.7121000000	   9.7813600000
C	   6.5937300000	   4.9443000000	   9.8253900000
C	   5.8309600000	   4.9889400000	   7.4633100000
C	   7.3403600000	   6.5178000000	   8.5730700000
C	   7.4776300000	   5.6873500000	  10.5464000000
H	   6.5012400000	   4.9582000000	   6.6529800000
H	   5.3952800000	   3.9565100000	   7.5532100000
H	   5.0287900000	   5.6581900000	   7.1698600000
H	   6.0153000000	   4.1402500000	  10.1901000000
H	   7.4925000000	   7.1531700000	   7.7165100000
H	   7.7959100000	   5.5769100000	  11.5730000000
N	   4.1736600000	   8.3088700000	   8.2118900000
N	   5.6065400000	   8.9712200000	   9.8287000000
C	   3.8155000000	   7.6344300000	   9.3592300000
C	   3.5722000000	   8.1442700000	   6.8628000000
C	   5.1738400000	   9.1732700000	   8.5782000000
C	   4.6496400000	   8.0777900000	  10.3688000000
H	   2.5093800000	   8.1068000000	   7.0315600000
H	   3.7903400000	   8.9746000000	   6.2453100000
H	   3.8114000000	   7.2287900000	   6.3130900000
H	   2.9996700000	   6.9123300000	   9.4220500000
H	   5.5287800000	   9.9402000000	   7.8834000000
H	   4.6883600000	   7.8318500000	  11.3632000000
S	   0.9942740000	  10.1519000000	  18.9875000000
S	   1.5073500000	  10.3286000000	  16.9437000000
S	   2.7850000000	   8.7479900000	  16.3905000000
S	   7.4305600000	   9.7832100000	  14.1855000000
S	   7.9991400000	   9.8082700000	  12.1495000000
S	   9.7115100000	   8.5747300000	  11.7809000000
S	   5.6779700000	   8.7645100000	  14.4929000000
S	   4.8491800000	   9.1969800000	  16.3298000000
