49

Li	  50.5923000000	  11.0774000000	  50.8615000000
N	  51.1935000000	  11.7222000000	  54.8730000000
N	  51.3932000000	  11.6103000000	  52.5578000000
C	  52.4507000000	  11.4212000000	  54.5452000000
C	  50.5933000000	  11.9054000000	  56.1779000000
C	  50.6184000000	  11.7604000000	  53.6391000000
C	  52.6053000000	  11.4940000000	  53.1409000000
H	  50.8184000000	  10.9999000000	  56.7643000000
H	  51.1204000000	  12.6787000000	  56.6650000000
H	  49.5697000000	  12.1742000000	  56.1401000000
H	  53.2410000000	  11.3235000000	  55.3269000000
H	  49.5505000000	  11.8282000000	  53.5567000000
H	  53.3632000000	  11.2860000000	  52.4527000000
N	  53.2767000000	  13.1389000000	  48.4923000000
N	  51.4178000000	  12.3115000000	  49.3544000000
C	  52.4301000000	  12.8393000000	  47.4654000000
C	  54.5555000000	  13.8646000000	  48.3315000000
C	  52.6380000000	  12.7285000000	  49.6012000000
C	  51.2390000000	  12.3913000000	  47.9514000000
H	  55.3997000000	  13.1473000000	  48.3594000000
H	  54.5548000000	  14.4617000000	  47.4397000000
H	  54.7409000000	  14.5578000000	  49.1316000000
H	  52.7140000000	  13.0974000000	  46.4805000000
H	  53.0667000000	  12.7740000000	  50.5795000000
H	  50.3259000000	  12.1571000000	  47.5329000000
N	  46.8075000000	  12.7511000000	  49.8730000000
N	  48.7295000000	  11.9957000000	  50.6944000000
C	  46.4771000000	  11.7775000000	  50.8049000000
C	  45.8816000000	  13.4540000000	  49.0351000000
C	  48.1440000000	  12.9123000000	  49.9037000000
C	  47.6637000000	  11.3001000000	  51.3059000000
H	  44.9192000000	  12.9286000000	  49.1617000000
H	  45.8233000000	  14.4151000000	  49.3687000000
H	  46.1620000000	  13.3201000000	  48.0176000000
H	  45.4580000000	  11.6059000000	  50.9860000000
H	  48.6105000000	  13.5332000000	  49.1522000000
H	  47.8569000000	  10.5550000000	  52.0824000000
N	  51.2762000000	   7.7261000000	  48.7886000000
N	  51.1755000000	   9.1106900000	  50.5623000000
C	  52.3283000000	   7.4077300000	  49.6894000000
C	  51.0386000000	   7.1347700000	  47.4550000000
C	  50.6311000000	   8.6860900000	  49.3636000000
C	  52.3012000000	   8.3333400000	  50.7187000000
H	  49.9751000000	   6.8172300000	  47.3815000000
H	  51.3807000000	   7.8576000000	  46.7055000000
H	  51.5737000000	   6.1845500000	  47.4432000000
H	  52.9738000000	   6.5343500000	  49.4902000000
H	  49.7550000000	   9.0734500000	  48.8044000000
H	  52.9930000000	   8.3887400000	  51.4875000000
