52

Li	  42.2479000000	  16.9854000000	   8.3501100000
N	  40.5446000000	  20.2386000000	   9.1592300000
N	  41.7497000000	  18.4160000000	   9.5942700000
C	  40.0490000000	  19.6943000000	  10.3216000000
C	  39.9725000000	  21.4366000000	   8.5542700000
C	  41.5867000000	  19.4396000000	   8.7911000000
C	  40.7949000000	  18.6099000000	  10.6203000000
H	  39.0553000000	  21.1584000000	   8.0211100000
H	  39.6656000000	  22.1405000000	   9.2799900000
H	  40.6451000000	  21.8541000000	   7.7946500000
H	  39.1607000000	  20.1163000000	  10.8086000000
H	  42.1317000000	  19.8161000000	   7.9165300000
H	  40.6823000000	  17.9754000000	  11.5208000000
N	  41.1520000000	  18.6732000000	   4.7580700000
N	  41.7029000000	  17.1358000000	   6.3261900000
C	  42.3520000000	  18.1034000000	   4.3893400000
C	  40.3583000000	  19.5355000000	   3.9176600000
C	  40.7931000000	  17.9971000000	   5.8815300000
C	  42.6629000000	  17.1569000000	   5.3264200000
H	  40.1295000000	  20.4843000000	   4.3480900000
H	  41.0005000000	  19.7750000000	   3.0898900000
H	  39.5174000000	  18.9516000000	   3.4632400000
H	  42.8158000000	  18.3066000000	   3.4081100000
H	  39.8414000000	  18.3235000000	   6.3568500000
H	  43.5268000000	  16.5175000000	   5.3591100000
N	  44.9720000000	  14.7779000000	   9.9686100000
N	  43.6909000000	  15.6062000000	   8.3822600000
C	  45.1564000000	  14.0185000000	   8.8017500000
C	  45.6527000000	  14.5380000000	  11.2175000000
C	  44.0942000000	  15.7518000000	   9.6344500000
C	  44.3985000000	  14.5495000000	   7.8418300000
H	  46.7283000000	  14.6958000000	  11.0148000000
H	  45.3882000000	  15.2839000000	  11.9600000000
H	  45.4459000000	  13.5885000000	  11.5694000000
H	  45.7917000000	  13.1809000000	   8.7140200000
H	  43.6600000000	  16.4595000000	  10.2801000000
H	  44.3823000000	  14.2546000000	   6.8897000000
N	  39.2967000000	  15.1104000000	  10.6743000000
S	  39.4195000000	  13.9602000000	  11.7723000000
O	  38.4075000000	  14.0131000000	  12.8265000000
O	  39.8456000000	  12.6914000000	  11.2530000000
C	  40.8586000000	  14.6865000000	  12.7534000000
F	  41.9126000000	  14.7880000000	  11.9374000000
F	  41.3188000000	  13.9029000000	  13.7081000000
F	  40.6234000000	  15.9153000000	  13.2669000000
S	  39.3917000000	  14.9083000000	   9.1800600000
O	  38.9792000000	  13.6291000000	   8.7236900000
O	  40.5363000000	  15.5673000000	   8.6158600000
C	  37.9293000000	  16.0019000000	   8.7064700000
F	  36.8939000000	  15.8358000000	   9.4950000000
F	  38.1829000000	  17.3314000000	   8.6767100000
F	  37.4407000000	  15.7167000000	   7.5260000000
