48

Li	   8.7569000000	  22.8280000000	  20.9606000000
N	   6.5897900000	  20.4764000000	  18.3380000000
N	   8.0275200000	  21.9696000000	  19.2481000000
C	   7.4658400000	  20.8492000000	  17.3093000000
C	   5.4919200000	  19.5204000000	  18.1244000000
C	   6.9969600000	  21.1604000000	  19.3877000000
C	   8.2747700000	  21.7609000000	  17.8649000000
H	   4.6316900000	  19.9924000000	  18.4380000000
H	   5.3466100000	  19.2703000000	  17.0811000000
H	   5.5715600000	  18.5810000000	  18.6950000000
H	   7.3584000000	  20.4900000000	  16.2695000000
H	   6.6754800000	  21.0065000000	  20.3869000000
H	   9.0218600000	  22.4210000000	  17.3644000000
N	  11.4674000000	  24.9890000000	  18.9858000000
N	  10.4671000000	  23.8663000000	  20.6029000000
C	  12.3277000000	  23.9694000000	  19.3817000000
C	  11.7280000000	  25.9324000000	  17.9069000000
C	  10.4286000000	  24.8935000000	  19.7364000000
C	  11.6806000000	  23.3006000000	  20.4173000000
H	  12.7763000000	  26.0750000000	  17.7804000000
H	  11.3517000000	  25.5091000000	  17.0204000000
H	  11.2884000000	  26.9057000000	  18.1254000000
H	  13.3083000000	  23.7814000000	  18.9685000000
H	   9.6141800000	  25.5324000000	  19.6786000000
H	  12.0613000000	  22.4726000000	  20.9824000000
N	  11.1768000000	  19.5067000000	  22.9409000000
S	  11.6045000000	  20.4951000000	  24.1094000000
O	  13.0204000000	  20.6202000000	  24.1530000000
O	  10.7672000000	  21.6490000000	  24.3464000000
C	  11.3826000000	  19.4026000000	  25.6099000000
F	  10.1001000000	  19.0299000000	  25.7883000000
F	  11.7810000000	  20.0536000000	  26.7047000000
F	  12.0784000000	  18.2767000000	  25.4724000000
S	  10.1388000000	  19.7384000000	  21.8597000000
O	  10.6335000000	  19.2086000000	  20.6279000000
O	   9.4637700000	  20.9778000000	  21.8210000000
C	   8.8315800000	  18.6517000000	  22.4542000000
F	   8.2821000000	  18.9853000000	  23.5906000000
F	   7.8306500000	  18.4575000000	  21.5844000000
F	   9.4047500000	  17.4703000000	  22.6354000000
S	  12.6093000000	  29.1059000000	  21.1934000000
S	  10.7359000000	  27.9780000000	  21.3660000000
S	   9.1781100000	  28.7300000000	  20.1586000000
S	   6.3074400000	  26.5252000000	  22.9129000000
S	   7.7911700000	  25.1235000000	  22.6372000000
S	   7.0395700000	  23.3603000000	  21.8798000000
S	   6.0837800000	  27.8429000000	  21.2878000000
S	   7.5076600000	  29.4214000000	  21.2630000000
