40

Li	  20.2797000000	  50.7701000000	   8.0652100000
O	  20.6099000000	  51.0186000000	   6.1342500000
O	  21.4541000000	  50.4246000000	   4.0410000000
C	  21.6452000000	  51.9554000000	   5.7342200000
C	  22.4366000000	  51.1001000000	   4.7167800000
C	  20.5505000000	  50.0453000000	   5.0674500000
H	  21.2862000000	  52.8980000000	   5.3885800000
H	  22.3683000000	  52.0950000000	   6.5948300000
H	  23.0636000000	  51.6605000000	   4.0776900000
H	  23.1007000000	  50.3594000000	   5.1400500000
H	  20.9959000000	  49.0841000000	   5.4362700000
H	  19.5599000000	  50.0099000000	   4.6453700000
N	  20.1507000000	  53.2502000000	  11.1186000000
N	  20.1873000000	  52.3644000000	   9.0462000000
C	  19.5522000000	  54.1765000000	  10.2628000000
C	  20.4481000000	  53.3553000000	  12.4984000000
C	  20.5726000000	  52.2152000000	  10.3104000000
C	  19.6820000000	  53.6727000000	   9.0032200000
H	  20.1069000000	  54.2627000000	  12.8457000000
H	  19.9277000000	  52.5695000000	  13.0106000000
H	  21.5098000000	  53.1287000000	  12.7222000000
H	  19.2534000000	  55.1706000000	  10.6455000000
H	  20.8915000000	  51.3234000000	  10.7223000000
H	  19.3648000000	  54.1385000000	   8.0852200000
S	  21.9885000000	  54.2019000000	  17.8868000000
S	  22.9061000000	  54.3470000000	  15.9441000000
S	  24.5292000000	  53.1257000000	  15.5066000000
S	  23.0354000000	  49.3597000000	  12.0381000000
S	  23.3494000000	  49.0755000000	  10.0527000000
S	  21.5621000000	  49.2817000000	   8.9798100000
S	  24.0830000000	  51.0237000000	  12.8075000000
S	  23.8822000000	  51.1851000000	  14.9135000000
S	  16.2582000000	  42.9256000000	   0.2938753272
S	  17.7912000000	  42.6442000000	   1.6953600000
S	  17.3807000000	  43.4639000000	   3.4344500000
S	  18.5377000000	  46.7720000000	   6.8705800000
S	  17.9450000000	  48.7785000000	   6.6333800000
S	  18.2253000000	  49.9572000000	   8.4015800000
S	  19.1875000000	  46.0349000000	   4.9150200000
S	  17.7525000000	  45.6207000000	   3.5480200000
