42

Li	  27.3301000000	  30.1170000000	  51.6648000000
O	  24.8539000000	  31.1224000000	  48.7294000000
O	  26.2434000000	  30.1303000000	  50.2038000000
C	  24.2097000000	  29.8741000000	  49.0736000000
C	  25.1905000000	  29.2213000000	  50.0930000000
C	  26.1556000000	  30.9167000000	  49.0225000000
H	  23.2804000000	  30.0168000000	  49.6337000000
H	  24.0601000000	  29.3783000000	  48.1082000000
H	  24.6492000000	  28.9820000000	  51.0438000000
H	  25.5639000000	  28.3278000000	  49.6716000000
H	  26.6071000000	  30.4230000000	  48.1610000000
H	  26.6335000000	  31.8405000000	  49.0524000000
O	  26.6568000000	  31.5430000000	  52.9100000000
O	  26.2344000000	  32.8214000000	  54.6128000000
C	  25.2924000000	  31.3043000000	  53.3047000000
C	  25.1230000000	  31.9903000000	  54.6454000000
C	  26.9979000000	  32.7202000000	  53.4658000000
H	  24.6683000000	  31.7216000000	  52.5408000000
H	  25.0305000000	  30.2059000000	  53.1962000000
H	  24.1665000000	  32.4569000000	  54.9134000000
H	  25.4076000000	  31.3683000000	  55.4804000000
H	  28.0126000000	  32.7495000000	  53.7610000000
H	  26.7495000000	  33.5326000000	  52.8487000000
O	  29.1944000000	  30.4986000000	  51.6220000000
O	  30.5912000000	  32.2035000000	  51.8065000000
C	  29.9361000000	  30.3191000000	  52.8037000000
C	  31.0523000000	  31.4268000000	  52.8275000000
C	  29.9803000000	  31.3519000000	  50.8949000000
H	  29.2078000000	  30.5549000000	  53.5768000000
H	  30.3623000000	  29.3131000000	  52.8576000000
H	  31.0586000000	  31.9879000000	  53.7626000000
H	  32.0187000000	  30.9810000000	  52.7155000000
H	  30.7650000000	  30.8223000000	  50.4187000000
H	  29.4413000000	  31.7906000000	  50.0082000000
S	  23.2057000000	  29.4451000000	  62.8405446728
S	  22.4563000000	  28.1082000000	  61.3494546728
S	  23.7234000000	  27.6046000000	  59.7574546728
S	  25.8931000000	  27.8027000000	  56.1276000000
S	  25.6134000000	  27.4768000000	  54.0018000000
S	  27.2426000000	  28.3467000000	  53.0385000000
S	  24.5457000000	  29.1983000000	  56.9120000000
S	  23.0295000000	  28.0296000000	  57.8204000000
