46

Li	  39.1888000000	  45.2205000000	  36.8464000000
N	  38.5104000000	  44.7560000000	  40.7839000000
S	  38.1150000000	  43.3387000000	  40.3188000000
O	  37.7196000000	  43.1471000000	  38.9743000000
O	  38.9214000000	  42.2852000000	  40.9575000000
C	  36.4914000000	  43.2362000000	  41.2431000000
F	  35.4780000000	  43.9759000000	  40.7846000000
F	  36.5636000000	  43.6209000000	  42.5257000000
F	  36.0424000000	  41.9900000000	  41.3504000000
S	  38.9911000000	  45.9951000000	  39.9108000000
O	  38.9240000000	  45.8333000000	  38.4653000000
O	  40.0718000000	  46.6963000000	  40.4700000000
C	  37.6300000000	  47.1371000000	  40.2252000000
F	  37.5789000000	  47.5820000000	  41.4865000000
F	  37.6968000000	  48.1960000000	  39.4484000000
F	  36.5314000000	  46.4928000000	  39.9151000000
N	  40.1541000000	  41.7653000000	  36.1504000000
S	  39.2212000000	  42.4969000000	  35.1477000000
O	  38.6601000000	  43.7450000000	  35.6039000000
O	  39.7072000000	  42.3993000000	  33.7827000000
C	  37.7834000000	  41.4032000000	  35.1124000000
F	  37.0587000000	  41.6126000000	  33.9872000000
F	  37.0669000000	  41.6842000000	  36.1687000000
F	  38.1682000000	  40.1198000000	  35.1492000000
S	  40.6503000000	  42.2086000000	  37.5009000000
O	  40.4631000000	  41.2088000000	  38.5105000000
O	  40.3824000000	  43.5714000000	  37.8671000000
C	  42.4789000000	  42.2472000000	  37.2966000000
F	  42.9197000000	  41.0278000000	  37.1068000000
F	  42.8955000000	  43.0244000000	  36.3016000000
F	  43.0433000000	  42.6400000000	  38.4644000000
N	  38.4173000000	  46.6448000000	  33.1558000000
S	  37.9417000000	  47.1137000000	  34.5452000000
O	  38.5514000000	  46.5117000000	  35.6828000000
O	  37.6362000000	  48.5024000000	  34.6400000000
C	  36.2778000000	  46.3115000000	  34.7361000000
F	  36.2292000000	  44.9890000000	  34.5725000000
F	  35.4324000000	  46.7551000000	  33.8390000000
F	  35.7279000000	  46.5934000000	  35.8866000000
S	  39.7078000000	  45.6966000000	  32.8199000000
O	  39.4501000000	  44.4974000000	  32.0521000000
O	  40.6729000000	  45.5349000000	  33.8891000000
C	  40.4715000000	  46.8300000000	  31.5931000000
F	  41.4432000000	  46.2182000000	  30.9923000000
F	  39.5540000000	  47.1138000000	  30.7258000000
F	  40.9588000000	  47.8856000000	  32.2356000000
