52

Li	  48.5853000000	  13.4960000000	  37.2995000000
O	  47.8740000000	  11.6934000000	  36.2480000000
O	  46.9399000000	  10.1446000000	  34.9249000000
C	  48.5376000000	  10.4834000000	  36.3429000000
C	  48.3700000000	   9.9265000000	  34.9521000000
C	  46.6473000000	  11.3784000000	  35.5118000000
H	  49.6059000000	  10.5089000000	  36.6368000000
H	  48.1756000000	   9.8767600000	  37.1656000000
H	  48.8823000000	  10.4381000000	  34.1263000000
H	  48.7152000000	   8.8642100000	  34.8961000000
H	  45.7305000000	  11.2639000000	  36.1432000000
H	  46.4368000000	  12.1357000000	  34.7195000000
O	  50.6835000000	  13.9688000000	  40.4675000000
O	  50.1856000000	  13.3220000000	  38.3895000000
C	  50.2710000000	  12.5454000000	  40.5573000000
C	  50.3952000000	  12.0599000000	  39.1397000000
C	  50.7619000000	  14.2263000000	  39.1562000000
H	  50.9336000000	  11.9688000000	  41.2689000000
H	  49.2298000000	  12.4053000000	  40.9576000000
H	  51.4121000000	  11.7547000000	  38.8729000000
H	  49.6339000000	  11.3268000000	  38.8815000000
H	  50.3785000000	  15.1555000000	  38.9493000000
H	  51.8006000000	  14.4210000000	  38.9324000000
O	  47.6343000000	  13.4327000000	  39.3063000000
O	  46.0527000000	  14.2648000000	  40.7325000000
C	  46.5287000000	  12.5423000000	  39.3658000000
C	  46.0190000000	  12.9032000000	  40.7281000000
C	  47.3315000000	  14.4217000000	  40.1549000000
H	  45.8667000000	  12.8481000000	  38.5797000000
H	  46.6926000000	  11.5462000000	  39.1452000000
H	  44.8910000000	  12.5732000000	  40.8118000000
H	  46.6652000000	  12.5067000000	  41.5312000000
H	  48.1395000000	  14.4009000000	  40.8833000000
H	  47.2877000000	  15.4506000000	  39.7306000000
F	  46.8532000000	  14.8919000000	  37.0553000000
F	  48.4378000000	  16.0712000000	  37.7394000000
O	  49.2780000000	  14.1118000000	  35.7308000000
C	  51.2033000000	  12.6761000000	  34.8930000000
C	  49.9590000000	  13.5602000000	  34.5365000000
C	  48.6296000000	  15.3751000000	  35.5582000000
C	  52.3698000000	  13.3734000000	  35.5941000000
C	  47.6886000000	  15.7999000000	  36.6779000000
H	  49.1729000000	  12.9070000000	  34.1706000000
H	  50.1715000000	  14.3754000000	  33.8141000000
H	  50.8670000000	  11.8815000000	  35.4907000000
H	  51.5755000000	  12.3297000000	  33.9193000000
H	  47.9587000000	  15.1966000000	  34.7186000000
H	  49.2599000000	  16.2506000000	  35.3095000000
H	  52.1467000000	  13.6301000000	  36.6166000000
H	  53.1886000000	  12.6115000000	  35.5293000000
H	  52.8066000000	  14.1994000000	  35.0484000000
H	  47.1374000000	  16.7101000000	  36.4560000000
