60

Li	  55.7821000000	  21.1215000000	  13.8096000000
O	  55.9219000000	  19.2477000000	  14.2196000000
O	  56.0696000000	  17.1728000000	  15.0959000000
C	  55.9146000000	  18.3538000000	  13.1299000000
C	  56.1203000000	  16.9684000000	  13.7188000000
C	  55.5107000000	  18.4222000000	  15.2712000000
H	  54.9964000000	  18.4632000000	  12.6253000000
H	  56.7884000000	  18.5108000000	  12.5655000000
H	  55.3865000000	  16.2101000000	  13.5217000000
H	  57.1021000000	  16.5696000000	  13.3587000000
H	  55.8847000000	  18.8421000000	  16.1978000000
H	  54.3807000000	  18.3358000000	  15.3185000000
F	  54.3157000000	  24.3236000000	  14.8573000000
F	  52.4132000000	  23.8162000000	  15.7708000000
O	  55.4224000000	  21.9625000000	  15.4359000000
C	  57.3966000000	  23.0051000000	  16.3169000000
C	  56.2383000000	  22.0829000000	  16.5835000000
C	  54.0109000000	  22.2263000000	  15.6885000000
C	  57.2315000000	  24.4923000000	  16.7501000000
C	  53.7586000000	  23.7184000000	  15.8632000000
H	  55.8579000000	  22.2692000000	  17.5512000000
H	  56.6465000000	  21.1066000000	  16.6979000000
H	  58.1917000000	  22.5405000000	  16.9003000000
H	  57.8148000000	  22.9720000000	  15.3543000000
H	  53.6303000000	  21.7162000000	  16.5344000000
H	  53.4947000000	  21.7658000000	  14.8815000000
H	  56.8535000000	  24.5779000000	  17.8167000000
H	  58.1902000000	  25.0797000000	  16.8155000000
H	  56.5197000000	  24.8536000000	  16.0537000000
H	  54.1491000000	  24.2781000000	  16.7522000000
N	  60.1023047271	  21.9034000000	  13.1541000000
S	  61.0698647271	  23.1031000000	  12.8590000000
O	  61.0914247271	  23.5413000000	  11.5036000000
O	  61.0115947271	  24.2307000000	  13.7928000000
C	  62.7735047271	  22.3438000000	  12.9929000000
F	  63.0005747271	  21.3311000000	  12.1960000000
F	  62.9567147271	  21.9407000000	  14.1989000000
F	  63.8045247271	  23.1737000000	  12.7422000000
S	  58.7599000000	  21.5979000000	  12.4010000000
O	  58.4213000000	  22.5511000000	  11.4035000000
O	  57.6924000000	  21.2354000000	  13.3339000000
C	  59.2397000000	  20.0738000000	  11.5767000000
F	  60.3727647271	  20.1540000000	  10.8838000000
F	  59.3430357271	  19.1107000000	  12.4581000000
F	  58.3275000000	  19.6716000000	  10.7043000000
N	  53.3491000000	  22.6682000000	  10.4117000000
S	  54.8419000000	  22.7416000000	  10.9732000000
O	  55.6266000000	  23.8474000000	  10.5197000000
O	  54.9154000000	  22.3518000000	  12.4275000000
C	  55.4781000000	  21.3244000000	   9.9812500000
F	  55.4000000000	  20.1686000000	  10.6687000000
F	  56.7206000000	  21.5444000000	   9.5984300000
F	  54.8431000000	  21.0930000000	   8.8322300000
S	  52.4339000000	  23.8404000000	   9.9777600000
O	  51.8527000000	  23.6106000000	   8.6684400000
O	  52.8806000000	  25.1992000000	  10.3344000000
C	  50.9886000000	  23.6332000000	  11.1504000000
F	  49.8722000000	  23.1741000000	  10.6212000000
F	  51.3347000000	  22.8140000000	  12.1599000000
F	  50.5468000000	  24.7907000000	  11.6772000000
