28

Li	  33.4005000000	  38.6931000000	  25.0175000000
O	  35.1391000000	  38.0822000000	  24.6050000000
O	  37.1312000000	  38.5050000000	  23.5657000000
C	  36.1648000000	  37.3790000000	  25.2651000000
C	  37.4598000000	  38.0991000000	  24.8720000000
C	  35.7130000000	  38.3749000000	  23.3790000000
H	  35.9805000000	  37.0581000000	  26.3726000000
H	  36.2683000000	  36.4058000000	  24.7694000000
H	  37.5900000000	  39.0247000000	  25.4518000000
H	  38.3106000000	  37.4450000000	  24.9908000000
H	  35.5092000000	  37.5755000000	  22.6587000000
H	  35.2460000000	  39.2126000000	  22.9573000000
S	  27.4744000000	  44.6370000000	  22.2680000000
S	  29.6599000000	  44.6850000000	  22.1470000000
S	  30.5131000000	  43.5642000000	  20.7168000000
S	  33.1652000000	  42.5828000000	  24.3995000000
S	  33.5610000000	  40.9765000000	  25.7026000000
S	  31.8531000000	  39.8735000000	  26.2104000000
S	  33.1111000000	  42.1007000000	  22.3158000000
S	  31.2369000000	  41.8958000000	  21.6729000000
S	  40.2930000000	  37.3836000000	  21.9995000000
S	  38.5494000000	  37.3184000000	  20.7827000000
S	  37.4207000000	  35.6755000000	  21.2518000000
S	  32.9374000000	  35.9129000000	  20.9319000000
S	  32.7947000000	  36.2191000000	  23.0111000000
S	  32.4293000000	  38.2375000000	  23.3115000000
S	  34.3080000000	  34.3107000000	  20.3840000000
S	  36.1091000000	  35.0749000000	  19.6911000000
