45

Li	  48.5483000000	  33.5572000000	   1.6813700000
O	  47.0153000000	  33.1636000000	   2.4887800000
O	  44.8509000000	  32.3310000000	   2.3870200000
C	  46.1466000000	  34.1980000000	   2.8008300000
C	  44.7118000000	  33.6832000000	   2.6679600000
C	  46.1708000000	  32.0330000000	   2.6635500000
H	  46.2934000000	  34.6673000000	   3.8251400000
H	  46.3716000000	  34.8337000000	   1.9078400000
H	  44.2637000000	  33.8000000000	   3.6517500000
H	  44.0364000000	  34.2215000000	   1.9362200000
H	  46.4999000000	  31.1961000000	   2.1130600000
H	  46.2551000000	  31.7618000000	   3.7375400000
O	  50.0803000000	  32.7936000000	   2.2517100000
O	  51.2484000000	  30.8775000000	   1.8253500000
C	  51.3370000000	  33.0577000000	   1.4931900000
C	  52.1838000000	  31.8594000000	   1.8789000000
C	  50.1414000000	  31.4623000000	   2.4586100000
H	  51.2780000000	  32.9870000000	   0.4301237350
H	  51.8620000000	  33.9954000000	   1.7485100000
H	  53.0215000000	  31.6628000000	   1.2099700000
H	  52.5540000000	  31.8606000000	   2.9672000000
H	  50.2798000000	  31.2379000000	   3.4845400000
H	  49.2526000000	  30.9290000000	   2.1856100000
O	  50.9346000000	  36.9153000000	   1.8513400000
O	  49.2437000000	  35.4596000000	   1.8705000000
C	  50.7445000000	  36.5139000000	   3.2055800000
C	  49.4497000000	  35.8318000000	   3.1901600000
C	  49.7827000000	  36.5221000000	   1.1584000000
H	  51.5089000000	  35.7045000000	   3.4615500000
H	  50.8678000000	  37.2077000000	   3.9508300000
H	  49.4253000000	  34.8593000000	   3.7274500000
H	  48.7077000000	  36.5729000000	   3.4839500000
H	  49.0376000000	  37.3136000000	   1.1986200000
H	  49.9389000000	  36.2299000000	   0.0730237350
O	  47.0256000000	  31.5333000000	  -0.6332762650
O	  48.2399000000	  33.3616000000	  -0.2076762650
C	  46.1714000000	  32.5859000000	  -0.9286762650
C	  47.0896000000	  33.8111000000	  -0.9462762650
C	  48.3299000000	  32.0456000000	  -0.6798762650
H	  45.5457000000	  32.4625000000	  -1.8433762650
H	  45.5400000000	  32.7449000000	  -0.0904762650
H	  47.3946000000	  34.0907000000	  -1.9752762650
H	  46.5802000000	  34.6200000000	  -0.4053762650
H	  48.7822000000	  31.3493000000	  -0.0015762650
H	  48.7961000000	  32.0254000000	  -1.6693762650
