50

Li	  19.6049000000	  13.6356000000	  35.9202000000
O	  19.0184000000	   9.9493800000	  37.3822000000
O	  19.3854000000	  12.0065000000	  36.7048000000
C	  19.6077000000	  10.5243000000	  38.5876000000
C	  20.1026000000	  11.8793000000	  38.0104000000
C	  19.5468000000	  10.6892000000	  36.3497000000
H	  18.8795000000	  10.6762000000	  39.3534000000
H	  20.4186000000	   9.9770700000	  39.0549000000
H	  19.8541000000	  12.7361000000	  38.6706000000
H	  21.1779000000	  11.8899000000	  37.7164000000
H	  20.6077000000	  10.3983000000	  36.2475000000
H	  19.0362000000	  10.3979000000	  35.4851000000
N	  23.4067000000	  13.9876000000	  33.9140000000
S	  21.9024000000	  13.9508000000	  33.5380000000
O	  21.1039000000	  13.3997000000	  34.6054000000
O	  21.3742000000	  15.1663000000	  32.8668000000
C	  21.9010000000	  12.7225000000	  32.1909000000
F	  22.3244000000	  11.5669000000	  32.5887000000
F	  22.6395000000	  13.0939000000	  31.1264000000
F	  20.6676000000	  12.5302000000	  31.7083000000
S	  24.3716000000	  15.2043000000	  34.1871000000
O	  23.7123000000	  16.3471000000	  34.7819000000
O	  25.3676000000	  15.4561000000	  33.1209000000
C	  25.4225000000	  14.5877000000	  35.5038000000
F	  26.0284000000	  13.4525000000	  35.2092000000
F	  26.3556000000	  15.4964000000	  35.7352000000
F	  24.6995000000	  14.3257000000	  36.5452000000
N	  17.4306000000	  13.0139000000	  32.2623000000
S	  17.2288000000	  13.6681000000	  33.6593000000
O	  15.8814000000	  13.7026000000	  34.1160000000
O	  18.2718000000	  13.2720000000	  34.5800000000
C	  17.6084000000	  15.4374000000	  33.2496000000
F	  16.8657000000	  15.8294000000	  32.2373000000
F	  18.8434000000	  15.7399000000	  32.8535000000
F	  17.4036000000	  16.2444000000	  34.2452000000
S	  16.5788000000	  11.9580000000	  31.5100000000
O	  15.3995000000	  11.6635000000	  32.2624000000
O	  17.4300000000	  10.8682000000	  31.0531000000
C	  15.9826000000	  12.7983000000	  29.9982000000
F	  15.3297000000	  11.9386000000	  29.1678000000
F	  15.1493000000	  13.7399000000	  30.1984000000
F	  16.9524000000	  13.3505000000	  29.2772000000
S	  16.6597000000	   8.1582600000	  39.1044000000
S	  15.2850000000	   9.0333800000	  40.5339000000
S	  16.3367000000	  10.2537000000	  41.8484000000
S	  18.0909000000	  14.8799000000	  39.6703000000
S	  18.2593000000	  14.7281000000	  37.5759000000
S	  20.0562000000	  15.4793000000	  36.5963000000
S	  18.1414000000	  13.0963000000	  40.8300000000
S	  16.1870000000	  12.2821000000	  41.2656000000
