20

Li	  15.6653000000	  56.2772000000	  36.5202000000
O	  19.3844000000	  54.5088000000	  35.9302000000
O	  17.3351000000	  55.2152000000	  35.5392000000
C	  19.4314000000	  55.9465000000	  35.9646000000
C	  18.1803000000	  56.3081000000	  35.2868000000
C	  18.2077000000	  54.1661000000	  35.4090000000
H	  19.3569000000	  56.2783000000	  36.9604000000
H	  20.2763000000	  56.2858000000	  35.4342000000
H	  17.7518000000	  57.2094000000	  35.6624000000
H	  18.4132000000	  56.4780000000	  34.2398000000
H	  18.2321000000	  53.8463000000	  34.3398000000
H	  17.7723000000	  53.4506000000	  35.9894000000
S	  14.9246000000	  58.1225000000	  36.1501000000
S	  15.0667000000	  56.9106000000	  34.3724000000
S	  13.5432000000	  55.4272000000	  34.1945000000
S	  14.8155000000	  53.0955000000	  38.0106000000
S	  14.5862000000	  54.9483000000	  38.9531000000
S	  16.3171000000	  56.1458000000	  38.7555000000
S	  13.5747000000	  52.7715000000	  36.3383000000
S	  14.2259000000	  53.5104000000	  34.4534000000
