35

Li	  41.8811000000	   8.8302200000	  30.0213000000
O	  41.4427000000	   9.7265300000	  31.5079000000
O	  40.4876000000	  11.6988000000	  31.2449000000
C	  40.0664000000	   9.6018600000	  31.8500000000
C	  39.4249000000	  10.8725000000	  31.6562000000
C	  41.6015000000	  11.0380000000	  31.7129000000
H	  39.4947000000	   8.8560900000	  31.3499000000
H	  39.9952000000	   9.3692600000	  32.9376000000
H	  38.5753000000	  10.6598000000	  30.9805000000
H	  39.0248000000	  11.2423000000	  32.6208000000
H	  41.8636000000	  11.2278000000	  32.6984000000
H	  42.4692000000	  11.2796000000	  31.1413000000
N	  44.4257000000	   6.9682100000	  31.1913000000
S	  43.0224000000	   6.2667200000	  31.2428000000
O	  41.9642000000	   7.2138700000	  30.9872000000
O	  42.9504000000	   4.9939300000	  30.4816000000
C	  42.8904000000	   5.8310400000	  32.9518000000
F	  41.6084000000	   5.7080200000	  33.3386000000
F	  43.3743000000	   6.8427600000	  33.6772000000
F	  43.5843000000	   4.7543800000	  33.2994000000
S	  44.8591000000	   8.1471000000	  30.2905000000
O	  43.7152000000	   8.7075200000	  29.5800000000
O	  45.9573000000	   7.8636700000	  29.4481000000
C	  45.4287000000	   9.4434100000	  31.4493000000
F	  46.1384000000	  10.4335000000	  30.9276000000
F	  44.4099000000	  10.0098000000	  32.0176000000
F	  46.1410000000	   8.9458200000	  32.4335000000
S	  40.6909000000	   9.8603900000	  28.2357000000
S	  40.6165000000	   8.1780600000	  27.1235000000
S	  40.8390000000	   6.4630600000	  28.3064000000
S	  36.9738000000	   6.8281000000	  31.2987000000
S	  35.0380000000	   6.2937800000	  30.8708000000
S	  34.2449000000	   7.2726600000	  29.1496000000
S	  38.5003000000	   5.4823100000	  30.7268000000
S	  38.9415000000	   5.5761900000	  28.7068000000
