34

Li	  49.1982000000	  45.0383000000	  21.4460000000
O	  47.1868000000	  41.9655000000	  23.7939000000
O	  48.0136000000	  43.5352000000	  22.4357000000
C	  46.7024000000	  43.1386000000	  24.3049000000
C	  47.2448000000	  44.2004000000	  23.3181000000
C	  47.4623000000	  42.2863000000	  22.4329000000
H	  45.6094000000	  43.0699000000	  24.2620000000
H	  47.0605000000	  43.3592000000	  25.3030000000
H	  46.3757000000	  44.6772000000	  22.8034000000
H	  47.9864000000	  44.8679000000	  23.8560000000
H	  48.1250000000	  41.5137000000	  22.0388000000
H	  46.4382000000	  42.1976000000	  21.9575000000
O	  47.1644000000	  43.3491000000	  19.0405000000
O	  48.5821000000	  44.9950000000	  19.6629000000
C	  46.4062000000	  44.5463000000	  18.9955000000
C	  47.3420000000	  45.6420000000	  19.5681000000
C	  48.4351000000	  43.8190000000	  18.8791000000
H	  46.2339000000	  44.8140000000	  17.9074000000
H	  45.4964000000	  44.3637000000	  19.6134000000
H	  47.2420000000	  46.4825000000	  18.9293000000
H	  46.9190000000	  45.9587000000	  20.5879000000
H	  49.0985000000	  43.0506000000	  19.1911000000
H	  48.6479000000	  43.9591000000	  17.8228000000
O	  50.8063000000	  44.2440000000	  21.7514000000
O	  52.4303000000	  45.3664000000	  22.8646000000
C	  51.1207000000	  43.5323000000	  22.9818000000
C	  52.3455000000	  44.2005000000	  23.6046000000
C	  51.9650000000	  44.9867000000	  21.6073000000
H	  50.1800000000	  43.7740000000	  23.5862000000
H	  51.2660000000	  42.4250000000	  22.8757000000
H	  52.2022000000	  44.3287000000	  24.6223000000
H	  53.2770000000	  43.7041000000	  23.4016000000
H	  52.6431000000	  44.3064000000	  21.1473000000
H	  51.7903000000	  45.8794000000	  20.9480000000
