45

Li	  35.5735000000	  10.1767000000	  20.9827000000
O	  37.3863000000	   9.4842000000	  20.3538000000
O	  39.6733000000	   9.0454800000	  19.7922000000
C	  37.5487000000	   8.1562100000	  20.5244000000
C	  39.0980000000	   7.9299300000	  20.5164000000
C	  38.5096000000	   9.7996400000	  19.4484000000
H	  37.1117000000	   7.9209700000	  21.4988000000
H	  37.0327000000	   7.4534900000	  19.8660000000
H	  39.4086000000	   7.7903600000	  21.5573000000
H	  39.4174000000	   6.9329700000	  20.0048000000
H	  38.2888000000	   9.5558800000	  18.4382000000
H	  38.7576000000	  10.8731000000	  19.5822000000
F	  36.2707000000	  11.9246000000	  18.7928000000
F	  35.1352000000	  10.0179000000	  18.9491000000
O	  34.0714000000	  11.3298000000	  20.8449000000
C	  31.8600000000	  11.0014000000	  21.4805000000
C	  33.0886000000	  11.9044000000	  21.6759000000
C	  34.0298000000	  11.8821000000	  19.4720000000
C	  30.7204000000	  11.6600000000	  22.2848000000
C	  35.0737000000	  11.3461000000	  18.5720000000
H	  33.3667000000	  11.8812000000	  22.7137000000
H	  32.8723000000	  12.9721000000	  21.5130000000
H	  31.5329000000	  10.9559000000	  20.4914000000
H	  32.1262000000	  10.0879000000	  22.0646000000
H	  33.9719000000	  12.9412000000	  19.5493000000
H	  33.0103000000	  11.5453000000	  19.0375000000
H	  30.4464000000	  12.6348000000	  21.9168000000
H	  29.8158000000	  11.0718000000	  22.1000000000
H	  31.0511000000	  11.6592000000	  23.3304000000
H	  34.9243000000	  11.4838000000	  17.5425000000
N	  34.2939000000	   6.9631700000	  22.3447000000
S	  34.6284000000	   8.1643000000	  23.2733000000
O	  35.3796000000	   9.2362200000	  22.6473000000
O	  33.4965000000	   8.4679100000	  24.0987000000
C	  35.8556000000	   7.4186000000	  24.4451000000
F	  36.0271000000	   8.1494800000	  25.5139000000
F	  37.0295000000	   7.2745900000	  23.8906000000
F	  35.4401000000	   6.2065100000	  24.9048000000
S	  33.6556000000	   7.0183500000	  20.9333000000
O	  34.2076000000	   6.0146300000	  20.0536000000
O	  33.4787000000	   8.3429700000	  20.3816000000
C	  31.9037000000	   6.4176600000	  21.1861000000
F	  31.1738000000	   7.2836800000	  21.8931000000
F	  31.2410000000	   6.3182900000	  20.0184000000
F	  31.7922000000	   5.1542300000	  21.7527000000
