35

Li	  54.3144000000	  43.0302000000	  15.3626000000
O	  54.6930000000	  42.8395000000	  17.2375000000
O	  55.3566000000	  41.2734000000	  18.7163000000
C	  55.7052000000	  43.4801000000	  17.9680000000
C	  56.2931000000	  42.3703000000	  18.7827000000
C	  54.2533000000	  41.8785000000	  18.0731000000
H	  56.5056000000	  44.0338000000	  17.4869000000
H	  55.2661000000	  44.1440000000	  18.6525000000
H	  57.2678000000	  42.1522000000	  18.3219000000
H	  56.5203000000	  42.5776000000	  19.8156000000
H	  53.6538000000	  42.2328000000	  18.8863000000
H	  53.7546000000	  41.1405000000	  17.5431000000
N	  56.8270000000	  41.3468000000	  12.8918000000
S	  56.1512000000	  40.6803000000	  14.1282000000
O	  54.9910000000	  41.4094000000	  14.5957000000
O	  56.0770000000	  39.2388000000	  14.0140000000
C	  57.3741000000	  40.9199000000	  15.4755000000
F	  57.6056000000	  42.2466000000	  15.7679000000
F	  58.5195000000	  40.3193000000	  15.2260000000
F	  56.7805000000	  40.4240000000	  16.5641000000
S	  57.3856000000	  40.7038000000	  11.5383000000
O	  57.4095000000	  41.5062000000	  10.3363000000
O	  57.2180000000	  39.2459000000	  11.3988000000
C	  59.1241000000	  40.8268000000	  11.8911000000
F	  59.4496747271	  42.0099000000	  12.4029000000
F	  59.5731817271	  39.8382000000	  12.7082000000
F	  59.8606347271	  40.8143000000	  10.8170000000
S	  63.3303347271	  50.3139000000	  15.8437000000
S	  61.5336147271	  50.8751000000	  16.7860000000
S	  59.9602547271	  50.4473000000	  15.4184000000
S	  56.7705000000	  46.6190000000	  16.1776000000
S	  56.7283000000	  45.0199000000	  14.8140000000
S	  54.7491000000	  44.6505000000	  14.2569000000
S	  57.2210000000	  48.4730000000	  15.3713000000
S	  58.3407000000	  49.7682000000	  16.4702000000
