31

Li	  14.2824000000	  52.3328000000	  22.2397000000
O	  15.8374000000	  51.3972000000	  21.9605000000
O	  17.7739000000	  51.5052000000	  23.1527000000
C	  16.8165000000	  51.4715000000	  20.9669000000
C	  18.0739000000	  51.0818000000	  21.7861000000
C	  16.4567000000	  51.0354000000	  23.1617000000
H	  16.7472000000	  50.9243000000	  20.0446000000
H	  17.0347000000	  52.4555000000	  20.6514000000
H	  18.2585000000	  49.9989000000	  21.7939000000
H	  18.9956000000	  51.5831000000	  21.3287000000
H	  16.0826000000	  51.6311000000	  24.0394000000
H	  16.2740000000	  50.0098000000	  23.4343000000
O	  14.0317000000	  49.8527000000	  24.8093000000
O	  13.2000000000	  51.3708000000	  23.4167000000
C	  13.4289000000	  50.7905000000	  25.6277000000
C	  12.6752000000	  51.7245000000	  24.6801000000
C	  13.4850000000	  50.0583000000	  23.5439000000
H	  12.7678000000	  50.2175000000	  26.2748000000
H	  14.0546000000	  51.2534000000	  26.4004000000
H	  11.6495000000	  51.4488000000	  24.7642000000
H	  12.6877000000	  52.8311000000	  24.9177000000
H	  14.1001000000	  49.6377000000	  22.7360000000
H	  12.5127000000	  49.5676000000	  23.5068000000
S	  14.6250000000	  54.3675000000	  23.4692000000
S	  13.2928000000	  54.3048000000	  21.8378000000
S	  11.1925000000	  54.2139000000	  22.4285000000
S	   9.2496200000	  50.1874000000	  20.8150000000
S	   9.7154600000	  48.7307000000	  22.3796000000
S	  10.9676000000	  47.1937000000	  21.4894000000
S	   8.7911100000	  51.9974000000	  21.6779000000
S	   9.9323600000	  53.6156000000	  20.8082000000
