57

Li	  39.0641000000	  27.2466000000	  31.9517000000
O	  35.5043000000	  25.2972000000	  32.4989000000
O	  37.3667000000	  26.6128000000	  32.6288000000
C	  36.0116000000	  25.2982000000	  33.8657000000
C	  36.9154000000	  26.4934000000	  33.9536000000
C	  36.1744000000	  26.3674000000	  31.9180000000
H	  35.2872000000	  25.1924000000	  34.6884000000
H	  36.6903000000	  24.4078000000	  33.8934000000
H	  36.5085000000	  27.3446000000	  34.4613000000
H	  37.8229000000	  26.3753000000	  34.5967000000
H	  36.3482000000	  26.1175000000	  30.8180000000
H	  35.4703000000	  27.2512000000	  31.9545000000
N	  37.4641000000	  30.0105000000	  28.6910000000
S	  37.8629000000	  29.7753000000	  30.1929000000
O	  38.2203000000	  28.4146000000	  30.5173000000
O	  38.7001000000	  30.8400000000	  30.7108000000
C	  36.2878000000	  29.9675000000	  31.0537000000
F	  36.4195000000	  29.6339000000	  32.3354000000
F	  35.4145000000	  29.1589000000	  30.4811000000
F	  35.8666000000	  31.2212000000	  30.9725000000
S	  37.3817000000	  28.9531000000	  27.5396000000
O	  37.4185000000	  27.5664000000	  27.9261000000
O	  38.1824000000	  29.4396000000	  26.4134000000
C	  35.6450000000	  29.2643000000	  26.9893000000
F	  34.7154000000	  29.3327000000	  27.9566000000
F	  35.5248000000	  30.3950000000	  26.3042000000
F	  35.2809000000	  28.3694000000	  26.1323000000
N	  40.4411000000	  23.8530000000	  31.6991000000
S	  39.7318000000	  24.2410000000	  30.3845000000
O	  39.1294000000	  25.5795000000	  30.4017000000
O	  40.3908000000	  23.7740000000	  29.1099000000
C	  38.3533000000	  23.0984000000	  30.5241000000
F	  38.7724000000	  21.7727000000	  30.6248000000
F	  37.5590000000	  23.1420000000	  29.4943000000
F	  37.5615000000	  23.2861000000	  31.5791000000
S	  41.0326000000	  24.8074000000	  32.8003000000
O	  40.1621000000	  25.9560000000	  32.9689000000
O	  42.4419000000	  24.9076000000	  32.7111000000
C	  40.6569000000	  23.7415000000	  34.2790000000
F	  40.7478000000	  24.3356000000	  35.4523000000
F	  39.4266000000	  23.3091000000	  34.1170000000
F	  41.4924000000	  22.6938000000	  34.3671000000
N	  41.8611000000	  29.2515000000	  32.9554000000
S	  42.2424000000	  28.4189000000	  31.6947000000
O	  43.3538000000	  27.5133000000	  31.9450000000
O	  41.0961000000	  27.9418000000	  30.9454000000
C	  42.9691000000	  29.5900000000	  30.6286000000
F	  42.1848000000	  30.5741000000	  30.3093000000
F	  43.4086000000	  29.1012000000	  29.4965000000
F	  44.0134000000	  30.1500000000	  31.2140000000
S	  40.4899000000	  29.7200000000	  33.5103000000
O	  39.3737000000	  28.8545000000	  33.0736000000
O	  40.2720000000	  31.1804000000	  33.5313000000
C	  40.6350000000	  29.4215000000	  35.2673000000
F	  39.6344000000	  29.7676000000	  35.9945000000
F	  40.9455000000	  28.1657000000	  35.5615000000
F	  41.6449000000	  30.1546000000	  35.7669000000
