68

Li	   1.3957400000	   6.3963200000	   3.1922400000
O	   1.6163000000	   6.5018100000	   1.0034800000
O	   3.2328500000	   6.8204900000	  -0.5604762650
C	   1.2680000000	   7.7419000000	   0.3150237350
C	   2.6121900000	   8.0761500000	  -0.3169762650
C	   2.7505700000	   5.8830700000	   0.4029237350
H	   0.4782052729	   7.5632700000	  -0.4304762650
H	   1.0240700000	   8.4697200000	   1.1325100000
H	   2.4599000000	   8.6748400000	  -1.2223762650
H	   3.2785200000	   8.6487700000	   0.3753237350
H	   3.3917100000	   5.5904200000	   1.2662500000
H	   2.3816900000	   4.9951700000	  -0.1072762650
O	   3.6612300000	   9.6343900000	   3.4697000000
O	   2.0687300000	   8.0727800000	   3.5523500000
C	   2.5812700000	  10.3105000000	   4.1003400000
C	   1.5118300000	   9.2534400000	   4.0805600000
C	   3.4850300000	   8.2984600000	   3.6407800000
H	   2.8791600000	  10.5914000000	   5.0733700000
H	   2.2473900000	  11.2555000000	   3.5952000000
H	   1.1267700000	   9.0143000000	   5.0427100000
H	   0.6148052729	   9.5047800000	   3.4586100000
H	   4.0410100000	   7.6018100000	   2.9171300000
H	   3.7665100000	   8.1065900000	   4.6213600000
N	   2.6123500000	   4.3910400000	   6.1796100000
S	   1.0804900000	   4.6579100000	   5.9903600000
O	   0.8240960000	   5.6820700000	   4.9964300000
O	   0.3034052729	   3.4535700000	   6.1219400000
C	   0.7420970000	   5.5999500000	   7.5333500000
F	   1.0373700000	   4.9024300000	   8.5966600000
F	  -0.5748947271	   6.0193500000	   7.6228300000
F	   1.5404000000	   6.6525000000	   7.4767000000
S	   3.7819700000	   4.6084900000	   5.1822000000
O	   3.3905600000	   5.4149900000	   4.0238500000
O	   4.5475000000	   3.3944000000	   4.9913200000
C	   5.0353300000	   5.5762300000	   6.1138400000
F	   4.4205200000	   6.6547800000	   6.5324700000
F	   5.4704000000	   4.9381900000	   7.1944500000
F	   6.1075800000	   5.9886800000	   5.3970500000
N	  -2.4553947271	   5.8461500000	   4.6128700000
S	  -3.5146947271	   4.8092600000	   4.9280800000
O	  -4.2603947271	   4.4358800000	   3.7808300000
O	  -3.1235947271	   3.7915300000	   5.8244600000
C	  -4.6220947271	   5.7740400000	   6.0040900000
F	  -3.9204947271	   6.6279700000	   6.8276100000
F	  -5.3307947271	   4.9237500000	   6.7461100000
F	  -5.4351947271	   6.5264200000	   5.3219300000
S	  -2.0389947271	   6.4013100000	   3.1725500000
O	  -2.8942947271	   6.1219000000	   2.0530600000
O	  -0.6033947271	   6.4699200000	   2.8984900000
C	  -2.5061947271	   8.0850000000	   3.5301300000
F	  -2.3344947271	   8.9236200000	   2.5548500000
F	  -3.7263947271	   8.0799900000	   3.8908500000
F	  -1.9050947271	   8.5559700000	   4.5655700000
N	   0.6475052729	   1.5536300000	   3.0143000000
S	   0.1134052729	   0.7601000000	   4.2935000000
O	   1.1649500000	   0.1946732544	   5.0738500000
O	  -1.0781947271	   1.2905800000	   4.9566700000
C	  -0.5619947271	  -0.6614267456	   3.3962800000
F	   0.3784052729	  -1.4305267456	   2.7691200000
F	  -1.3696947271	  -0.2728267456	   2.4369800000
F	  -1.2638947271	  -1.4652267456	   4.1671200000
S	   0.2344052729	   3.0592000000	   2.5938000000
O	   1.2789300000	   4.0662900000	   2.6261700000
O	  -1.0202947271	   3.4972000000	   3.1132200000
C	  -0.1503947271	   2.7592100000	   0.8056410000
F	  -0.5107947271	   3.7406600000	   0.0336237350
F	   0.8538850000	   2.2021600000	   0.1333237350
F	  -1.1696947271	   2.0147100000	   0.6546237350
