50

Li	  31.0700000000	  33.0467000000	  14.6581000000
O	  29.6550000000	  32.0432000000	  15.5615000000
O	  28.0705000000	  30.4537000000	  15.8899000000
C	  28.9677000000	  32.3752000000	  16.7647000000
C	  27.6442000000	  31.5638000000	  16.5883000000
C	  29.1215000000	  30.8014000000	  15.1444000000
H	  29.6174000000	  31.8869000000	  17.6351000000
H	  28.9748000000	  33.4590000000	  16.9282000000
H	  27.2667000000	  31.3013000000	  17.5897000000
H	  27.0147000000	  32.1162000000	  15.9094000000
H	  28.8407000000	  30.9152000000	  14.0301000000
H	  29.8002000000	  30.0231000000	  15.2645000000
N	  28.6358000000	  35.4035000000	  12.5756000000
S	  29.2182000000	  35.6024000000	  14.0113000000
O	  30.0580000000	  34.5545000000	  14.4723000000
O	  29.6478000000	  36.8955000000	  14.3626000000
C	  27.6681000000	  35.3647000000	  14.9407000000
F	  27.7937000000	  35.3606000000	  16.2553000000
F	  26.9778000000	  34.2944000000	  14.5755000000
F	  26.9433000000	  36.4316000000	  14.6469000000
S	  28.5579000000	  36.3322000000	  11.3141000000
O	  29.0940000000	  35.5861000000	  10.1416000000
O	  28.8684000000	  37.7276000000	  11.5755000000
C	  26.8034000000	  36.3032000000	  11.0467000000
F	  26.0661000000	  36.6333000000	  12.0803000000
F	  26.4972000000	  37.1997000000	  10.1297000000
F	  26.3692000000	  35.1425000000	  10.5392000000
N	  34.4220000000	  33.3992000000	  17.5309000000
S	  35.3299000000	  32.5405000000	  18.4167000000
O	  36.1066000000	  33.3254000000	  19.3413000000
O	  34.7141000000	  31.2769000000	  18.7337000000
C	  36.6030000000	  32.1184000000	  17.1969000000
F	  37.2676000000	  33.1872000000	  16.7040000000
F	  36.2321000000	  31.4066000000	  16.1769000000
F	  37.5024000000	  31.3638000000	  17.8298000000
S	  32.8890000000	  33.6502000000	  17.5146000000
O	  32.1119000000	  33.2920000000	  18.6867000000
O	  32.2133000000	  33.3131000000	  16.2816000000
C	  32.8319000000	  35.5361000000	  17.5413000000
F	  33.5861000000	  36.0951000000	  18.4374000000
F	  33.2862000000	  36.0694000000	  16.4519000000
F	  31.5834000000	  35.9253000000	  17.5653000000
S	  32.2493000000	  32.0380000000	  13.0313000000
S	  31.5628000000	  30.2295000000	  12.2748000000
S	  29.6002000000	  30.4167000000	  11.4465000000
S	  26.8561000000	  27.3937000000	   8.5140000000
S	  25.6149000000	  28.9849000000	   7.6070700000
S	  26.0422000000	  29.1070000000	   5.4655400000
S	  28.6993000000	  28.0328000000	   9.1914900000
S	  28.6172000000	  28.5750000000	  11.2242000000
