38

Li	  36.6949000000	  57.0788000000	  45.2784000000
O	  35.4042000000	  58.4246000000	  45.7281000000
O	  35.0857000000	  60.1902467456	  46.9728000000
C	  35.2688000000	  59.4684317456	  44.8187000000
C	  35.1285000000	  60.6448667456	  45.6900000000
C	  35.6506000000	  58.9718000000	  46.9804000000
H	  36.0813000000	  59.4894827456	  44.0772000000
H	  34.3172000000	  59.3951267456	  44.3948000000
H	  35.9188000000	  61.3272467456	  45.5517000000
H	  34.2460000000	  61.2347567456	  45.4362000000
H	  35.0879000000	  58.5337000000	  47.7916000000
H	  36.7411000000	  59.0435000000	  47.2054000000
F	  38.6355000000	  59.3186137456	  43.4157000000
F	  38.3452000000	  58.1727000000	  45.2405000000
O	  36.7986000000	  57.0391000000	  43.4174000000
C	  34.7864000000	  57.1347000000	  42.2645000000
C	  36.2598000000	  56.6921000000	  42.1217000000
C	  38.2304000000	  56.9585000000	  43.2524000000
C	  33.8263000000	  56.5327000000	  41.2496000000
C	  38.9064000000	  58.1130000000	  44.0083000000
H	  36.7944000000	  57.2391000000	  41.2863000000
H	  36.5236000000	  55.5828000000	  41.9244000000
H	  34.3049000000	  56.8919000000	  43.2357000000
H	  34.8986000000	  58.2164000000	  42.0718000000
H	  38.6340000000	  57.0028000000	  42.3182000000
H	  38.4966000000	  56.0569000000	  43.7169000000
H	  34.0938000000	  56.6325000000	  40.1906000000
H	  33.7650000000	  55.5199000000	  41.4903000000
H	  32.7706000000	  56.9705000000	  41.2566000000
H	  39.9518000000	  57.9664000000	  44.0919000000
S	  41.9219000000	  49.2439000000	  38.4506000000
S	  40.2782000000	  49.1462000000	  39.6800000000
S	  39.9046000000	  51.1072000000	  40.2614000000
S	  37.6122000000	  52.9441000000	  44.5552000000
S	  36.2936000000	  54.4424000000	  45.2791000000
S	  37.1327000000	  55.6307000000	  46.7936000000
S	  38.1532000000	  53.2371000000	  42.5764000000
S	  38.2564000000	  51.3710000000	  41.5454000000
