49

Li	  36.4471000000	  54.2233000000	  44.2658000000
O	  36.1964000000	  56.2006000000	  43.9315000000
O	  35.7687000000	  58.3191000000	  44.2826000000
C	  36.1782000000	  56.8543000000	  42.6430000000
C	  35.6087000000	  58.2247000000	  42.8886000000
C	  35.5108000000	  57.0802000000	  44.7704000000
H	  37.0913000000	  56.7031000000	  42.0717000000
H	  35.3687000000	  56.4357000000	  42.0245000000
H	  35.9919000000	  59.0082000000	  42.3169000000
H	  34.6061000000	  58.1898000000	  42.6971000000
H	  34.4210000000	  56.8538000000	  44.8276000000
H	  35.9477000000	  57.0206000000	  45.7511000000
O	  34.6935000000	  53.1800000000	  43.6194000000
O	  32.4192000000	  53.2602000000	  43.8711000000
C	  34.1960000000	  52.2971000000	  42.6105000000
C	  32.6792000000	  52.4022000000	  42.7741000000
C	  33.6014000000	  53.1508000000	  44.5196000000
H	  34.4474000000	  52.5173000000	  41.6036000000
H	  34.6583000000	  51.3047000000	  42.7050000000
H	  32.1391000000	  52.7414000000	  41.8678000000
H	  32.2134000000	  51.4217000000	  42.9537000000
H	  33.5309000000	  52.2881000000	  45.0817000000
H	  33.6795000000	  53.9380000000	  45.2555000000
F	  40.2865000000	  54.2551000000	  45.4857000000
F	  40.4795000000	  52.7848000000	  43.9885000000
O	  38.2943000000	  54.1463000000	  43.2363000000
C	  37.1139000000	  53.5237000000	  41.3149000000
C	  38.1514000000	  53.0464000000	  42.3164000000
C	  39.5742000000	  54.8246000000	  43.2878000000
C	  37.6811000000	  54.5268000000	  40.2563000000
C	  40.5765000000	  54.0509000000	  44.2141000000
H	  39.0729000000	  52.8801000000	  41.7904000000
H	  37.8303000000	  52.1739000000	  42.8102000000
H	  36.6457000000	  52.6769000000	  40.7989000000
H	  36.2758000000	  53.9791000000	  41.8361000000
H	  39.5391000000	  55.8812000000	  43.5395000000
H	  40.0577000000	  54.8505000000	  42.3566000000
H	  38.4247000000	  54.2069000000	  39.5435000000
H	  36.7595000000	  54.7569000000	  39.6912000000
H	  38.0149000000	  55.4561000000	  40.5983000000
H	  41.5771000000	  54.4404000000	  44.0873000000
S	  40.4612000000	  48.4017000000	  39.2772000000
S	  40.2260000000	  49.6372000000	  40.9467000000
S	  38.7581000000	  49.0852000000	  42.3192000000
S	  38.2341000000	  50.4549000000	  46.5802000000
S	  36.8871000000	  51.8544000000	  45.8149000000
S	  37.1525000000	  53.8408000000	  46.3370000000
S	  39.9134000000	  49.8833000000	  45.3217000000
S	  39.6484000000	  48.2570000000	  43.9535000000
