42

Li	  37.7868000000	  56.4961000000	  48.0257000000
F	  37.5421000000	  59.6895967456	  49.2627000000
F	  37.7807000000	  58.3006000000	  50.8133000000
O	  39.6556000000	  57.4476000000	  48.8240000000
C	  40.9912000000	  57.9527000000	  46.7541000000
C	  40.8479000000	  57.0901000000	  48.0520000000
C	  39.7392000000	  58.7120000000	  49.5587000000
C	  42.0626000000	  57.4138000000	  45.7903000000
C	  38.4202000000	  59.2461000000	  50.1963000000
H	  41.8183000000	  57.2011000000	  48.5853000000
H	  40.7546000000	  55.9981000000	  47.7266000000
H	  40.0751000000	  58.0089000000	  46.1845000000
H	  41.2765000000	  58.9754000000	  47.0863000000
H	  40.2152000000	  59.4340697456	  48.8550000000
H	  40.4548000000	  58.6037000000	  50.3427000000
H	  41.7376000000	  56.5734000000	  45.2836000000
H	  42.3946000000	  58.1416000000	  45.0194000000
H	  42.9680000000	  56.9707000000	  46.2860000000
H	  38.4462000000	  60.0935767456	  50.8747000000
N	  35.7042000000	  54.0403000000	  50.4921000000
S	  35.3418000000	  53.3613000000	  51.9252000000
O	  36.3058000000	  52.3766000000	  52.3397000000
O	  34.6921000000	  54.2513000000	  52.8219000000
C	  34.0377000000	  52.2438000000	  51.3645000000
F	  34.4934000000	  51.4222000000	  50.4547000000
F	  33.0157000000	  52.8577000000	  50.8983000000
F	  33.6068000000	  51.4936000000	  52.3913000000
S	  35.1073000000	  55.3955000000	  49.8719000000
O	  36.1420000000	  56.3043000000	  49.4456000000
O	  34.0746000000	  55.9886000000	  50.6646000000
C	  34.1575000000	  54.8077000000	  48.3865000000
F	  34.9560000000	  53.9785000000	  47.7377000000
F	  33.0513000000	  54.0821000000	  48.6158000000
F	  33.8631000000	  55.8385000000	  47.5629000000
S	  42.6169000000	  49.7847000000	  39.8282000000
S	  42.4773000000	  51.7531000000	  40.8717000000
S	  41.6597000000	  51.4391000000	  42.8145000000
S	  39.0189000000	  54.8515000000	  45.3900000000
S	  37.0303000000	  55.3952000000	  45.6899000000
S	  37.1694000000	  57.4336000000	  46.2453000000
S	  39.7523000000	  54.3845000000	  43.5028000000
S	  39.7434000000	  52.3206000000	  42.9308000000
