46

Li	  49.1648000000	  55.9815000000	  27.5670000000
O	  48.1823000000	  55.7204000000	  29.3212000000
O	  46.7969000000	  55.9050000000	  31.2073000000
C	  48.8051000000	  55.1330000000	  30.5247000000
C	  47.7128000000	  54.8675000000	  31.4371000000
C	  46.8553000000	  56.0696000000	  29.8250000000
H	  49.3640000000	  54.2114000000	  30.2221000000
H	  49.5251000000	  55.8645000000	  30.9510000000
H	  47.2388000000	  53.9220000000	  31.1786000000
H	  48.1094000000	  54.8019000000	  32.4805000000
H	  46.6828000000	  57.0851000000	  29.4822000000
H	  46.1706000000	  55.2811000000	  29.4036000000
O	  49.4387000000	  58.1774000000	  27.5637000000
O	  49.4626000000	  60.4125767456	  28.0995000000
C	  48.7525000000	  58.8821000000	  26.6131000000
C	  49.3331000000	  60.3420567456	  26.7596000000
C	  49.8396000000	  59.1442000000	  28.5160000000
H	  48.7662000000	  58.4489000000	  25.6291000000
H	  47.7052000000	  59.0319000000	  26.9188000000
H	  50.3069000000	  60.4587467456	  26.2184000000
H	  48.6478000000	  61.1097867456	  26.4350000000
H	  49.3439000000	  58.8039000000	  29.4321000000
H	  50.8868000000	  59.0783000000	  28.7092000000
N	  52.3876000000	  55.2237000000	  26.6074000000
S	  52.2170000000	  55.8566000000	  28.0061000000
O	  53.0529000000	  56.9677000000	  28.2921000000
O	  50.8660000000	  55.7966000000	  28.4034000000
C	  52.9135000000	  54.5205000000	  28.9728000000
F	  54.1976000000	  54.2481000000	  28.6085000000
F	  52.2419000000	  53.3951000000	  28.9210000000
F	  52.9573000000	  54.7214000000	  30.3123000000
S	  52.7261000000	  55.9645000000	  25.2989000000
O	  53.7581000000	  55.3486000000	  24.5401000000
O	  52.7382000000	  57.4254000000	  25.3971000000
C	  51.1455000000	  55.6718000000	  24.2925000000
F	  50.0928000000	  56.1769000000	  24.8688000000
F	  51.2963000000	  56.3085000000	  23.1553000000
F	  50.9348000000	  54.3595000000	  24.0980000000
S	  47.4859000000	  55.4765000000	  26.1383000000
S	  49.0141000000	  53.9569000000	  26.5747000000
S	  48.0914000000	  52.5085000000	  27.6871000000
S	  48.3269000000	  47.0665000000	  27.2519000000
S	  49.9306000000	  46.1487000000	  26.1477000000
S	  51.0007000000	  44.6312000000	  27.1792000000
S	  48.8292000000	  49.0704000000	  27.8293000000
S	  47.8808000000	  50.5529000000	  26.7568000000
