72

Li	  30.6894000000	  47.8851000000	   1.6187100000
O	  33.4204000000	  44.8812000000	   0.5143237350
O	  31.4089000000	  45.8803000000	   1.0732700000
C	  32.5656000000	  44.9537000000	  -0.5732762650
C	  31.1621000000	  45.0202000000	   0.0325237350
C	  32.5889000000	  45.3476000000	   1.6090400000
H	  32.7285000000	  45.8062000000	  -1.1902762650
H	  32.6404000000	  44.1465000000	  -1.2263762650
H	  30.3920000000	  45.4587000000	  -0.6166762650
H	  30.8515000000	  44.0728000000	   0.4363237350
H	  32.3102000000	  44.6621000000	   2.3619700000
H	  33.1913000000	  46.0906000000	   2.0767000000
N	  30.0356000000	  48.9987000000	  -2.6121762650
S	  29.0658000000	  48.5868000000	  -1.4389762650
O	  29.8510000000	  47.9422000000	  -0.3804762650
O	  28.0039000000	  49.5168000000	  -1.1297762650
C	  28.1867000000	  47.1036000000	  -2.1252762650
F	  27.5127000000	  46.4419000000	  -1.1571762650
F	  29.0729000000	  46.1408000000	  -2.4351762650
F	  27.4917000000	  47.4118000000	  -3.2249762650
S	  30.2153000000	  50.4090000000	  -3.2367762650
O	  31.5737000000	  50.6133000000	  -3.7511762650
O	  29.5500000000	  51.5047000000	  -2.5553762650
C	  29.2320000000	  50.2378000000	  -4.7833762650
F	  28.1185000000	  49.6105000000	  -4.4266762650
F	  28.7778000000	  51.4024000000	  -5.2180762650
F	  29.8471000000	  49.5715000000	  -5.7500762650
N	  32.0273000000	  51.2693000000	   0.1074237350
S	  32.9163000000	  50.0556000000	  -0.2125762650
O	  32.4000000000	  48.7856000000	   0.3549237350
O	  33.2703000000	  49.9968000000	  -1.5634762650
C	  34.3571000000	  50.4842000000	   0.7677920000
F	  35.3323000000	  49.6091000000	   0.6938237350
F	  34.1615000000	  50.5636000000	   2.0493300000
F	  34.8372000000	  51.6741000000	   0.3360237350
S	  30.6389000000	  51.3380000000	   0.8873400000
O	  30.4140000000	  50.0793000000	   1.6002500000
O	  29.5455000000	  51.9529000000	   0.2258237350
C	  31.1049000000	  52.5233000000	   2.1793400000
F	  32.0187000000	  52.0349000000	   2.9906100000
F	  31.6823000000	  53.5829000000	   1.7061300000
F	  30.0478000000	  52.8234000000	   2.9298500000
N	  31.3234000000	  46.4067000000	   5.6011200000
S	  32.1451000000	  47.2680000000	   4.6198600000
O	  33.4275000000	  46.6872000000	   4.2644300000
O	  31.3111000000	  47.7818000000	   3.5566800000
C	  32.5772000000	  48.7111000000	   5.7038900000
F	  33.8720000000	  49.0349000000	   5.4789500000
F	  32.4553000000	  48.3683000000	   6.9441600000
F	  31.8282000000	  49.7402000000	   5.6166800000
S	  31.4097000000	  44.8534000000	   5.8681400000
O	  31.2529000000	  44.4169000000	   7.2192700000
O	  32.4505000000	  44.1935000000	   5.0966500000
C	  29.8876000000	  44.2661000000	   5.0364900000
F	  29.8018000000	  42.9850000000	   5.1473400000
F	  28.7857000000	  44.8249000000	   5.5229100000
F	  29.8208000000	  44.4934000000	   3.7395800000
N	  26.6666000000	  49.0183000000	   1.7812600000
S	  27.5574000000	  48.3316000000	   2.8856100000
O	  28.7530000000	  47.7190000000	   2.3672900000
O	  27.5970000000	  49.0743000000	   4.1176400000
C	  26.6872000000	  46.7570000000	   3.2638300000
F	  25.3942000000	  47.0699000000	   3.3737600000
F	  27.0654000000	  46.0230000000	   4.2864000000
F	  26.7027000000	  45.8847000000	   2.2558200000
S	  26.1622000000	  50.5058000000	   1.7640400000
O	  26.5219000000	  51.1838000000	   0.5683237350
O	  26.3589000000	  51.2591000000	   3.0023900000
C	  24.3584000000	  50.3066000000	   1.5308900000
F	  23.9888000000	  49.5763000000	   0.4996237350
F	  23.8242000000	  49.7322000000	   2.6242400000
F	  23.8130000000	  51.5048000000	   1.3534300000
