39

Li	  24.1353000000	  47.6264000000	  45.1395000000
N	  27.2352000000	  47.5787000000	  42.1948000000
S	  26.9875000000	  46.9342000000	  43.6220000000
O	  28.1530000000	  46.9387000000	  44.4661000000
O	  25.7191000000	  47.2337000000	  44.2191000000
C	  26.7567000000	  45.1731000000	  43.2633000000
F	  26.6849000000	  44.4486000000	  44.3589000000
F	  27.8201000000	  44.7058000000	  42.6009000000
F	  25.7164000000	  44.9931000000	  42.5175000000
S	  26.4664000000	  48.6410000000	  41.3632000000
O	  27.3180000000	  49.7219000000	  40.9291000000
O	  25.1466000000	  49.0411000000	  41.7316000000
C	  26.0810000000	  47.7089000000	  39.8512000000
F	  25.2340000000	  46.6647000000	  40.0400000000
F	  25.6301000000	  48.5195000000	  38.8691000000
F	  27.2117000000	  47.1974000000	  39.3631000000
N	  21.2813000000	  45.9930000000	  44.4047000000
S	  22.2578000000	  45.2667000000	  45.4405000000
O	  23.5532000000	  45.8402000000	  45.3693000000
O	  21.7422000000	  44.9536000000	  46.7615000000
C	  22.6061000000	  43.6540000000	  44.5945000000
F	  23.3901000000	  42.8446000000	  45.2366000000
F	  23.1810000000	  43.8273000000	  43.4493000000
F	  21.4922000000	  43.0105000000	  44.5425000000
S	  21.5360000000	  47.4390000000	  43.8013000000
O	  22.6268000000	  48.1732000000	  44.3548000000
O	  20.3480000000	  48.1678000000	  43.4752000000
C	  22.2581000000	  47.0753000000	  42.1488000000
F	  22.3932000000	  48.1342000000	  41.3686000000
F	  23.4260000000	  46.5207000000	  42.2453000000
F	  21.4344000000	  46.2912000000	  41.4863000000
S	  23.6163000000	  48.5815000000	  47.1456000000
S	  21.5238000000	  48.3165000000	  47.6362000000
S	  21.2146000000	  47.2352000000	  49.3911000000
S	  17.2964000000	  48.6297000000	  52.2039000000
S	  15.8300000000	  47.5612000000	  51.2105000000
S	  13.8995000000	  48.5611000000	  50.8176000000
S	  19.0077000000	  47.5216000000	  52.0448000000
S	  20.7415000000	  48.3212000000	  51.0686000000
