56

Li	  38.1391000000	  40.1224000000	   0.8238260000
O	  40.6970000000	  39.0743000000	   3.3878000000
O	  39.2590000000	  39.0415000000	   1.6951600000
C	  41.3964000000	  38.3391000000	   2.3811800000
C	  40.3230000000	  38.2181000000	   1.2932600000
C	  39.3057000000	  38.9644000000	   3.0611400000
H	  42.2724000000	  38.9767000000	   2.1057900000
H	  41.7638000000	  37.3856000000	   2.8407000000
H	  40.7753000000	  38.3926000000	   0.3111237350
H	  39.9019000000	  37.2133000000	   1.1395400000
H	  38.8507000000	  38.0539000000	   3.4713800000
H	  38.8331000000	  39.7401000000	   3.6543100000
O	  39.0429000000	  40.8965000000	  -0.6088762650
O	  38.8999000000	  42.3093000000	  -2.2007762650
C	  40.3400000000	  40.8815000000	  -1.2006762650
C	  40.1203000000	  41.7392000000	  -2.4282762650
C	  38.2247000000	  41.2480000000	  -1.6047762650
H	  41.0121000000	  41.4221000000	  -0.4089762650
H	  40.6686000000	  39.8662000000	  -1.3876762650
H	  40.8162000000	  42.5111000000	  -2.4648762650
H	  40.2093000000	  41.1655000000	  -3.3583762650
H	  38.1169000000	  40.3986000000	  -2.3514762650
H	  37.3219000000	  41.6528000000	  -1.1553762650
F	  39.7510000000	  44.1762000000	   2.0264300000
F	  39.7893000000	  42.0261000000	   1.9676400000
O	  37.1847000000	  41.7208000000	   1.3725100000
C	  35.2625000000	  41.4221000000	   2.8571200000
C	  35.7479000000	  41.5520000000	   1.4452900000
C	  37.7357000000	  42.9776000000	   1.8375900000
C	  35.5133000000	  40.0002000000	   3.3327500000
C	  39.2047000000	  43.1083000000	   1.4159400000
H	  35.3690000000	  42.4698000000	   1.0490200000
H	  35.5235000000	  40.6485000000	   0.8323460000
H	  35.6862000000	  42.0883000000	   3.5317500000
H	  34.1623000000	  41.5767000000	   2.8278700000
H	  37.6828000000	  42.9940000000	   2.8876300000
H	  37.2348000000	  43.8198000000	   1.3843200000
H	  36.4997000000	  39.6216000000	   3.0606200000
H	  35.4046000000	  40.0055000000	   4.4250200000
H	  34.7934000000	  39.3439000000	   2.8528900000
H	  39.3318000000	  43.2744000000	   0.3883237350
N	  36.2056000000	  37.6797000000	  -2.5407762650
S	  35.5596000000	  38.4579000000	  -3.6877762650
O	  34.1563000000	  38.6464000000	  -3.4830762650
O	  36.4673000000	  39.4473000000	  -4.1516762650
C	  35.6687000000	  37.1795000000	  -4.9630762650
F	  35.0086000000	  36.0634000000	  -4.6251762650
F	  36.9529000000	  36.8446000000	  -5.2158762650
F	  35.2475000000	  37.6520000000	  -6.1353762650
S	  35.9457000000	  37.9677000000	  -1.0012762650
O	  34.5772000000	  38.2579000000	  -0.5545762650
O	  37.0192000000	  38.7272000000	  -0.3756762650
C	  36.2612000000	  36.2810000000	  -0.3550762650
F	  35.9375000000	  36.1334000000	   0.9067180000
F	  35.6683000000	  35.3616000000	  -1.0490762650
F	  37.5185000000	  35.9488000000	  -0.2979762650
