41

Li	  42.2463000000	  43.6440000000	  51.2181000000
O	  43.3246000000	  42.0559000000	  52.1014000000
O	  43.0270000000	  41.0667000000	  54.1216000000
C	  42.8841000000	  40.6951000000	  51.7744000000
C	  42.9677000000	  40.0421000000	  53.1085000000
C	  43.7462000000	  42.0369000000	  53.4390000000
H	  41.9145000000	  40.6431000000	  51.3618000000
H	  43.5474000000	  40.3279000000	  50.9731000000
H	  42.1620000000	  39.3086000000	  53.1931000000
H	  43.9457000000	  39.5445000000	  53.2114000000
H	  44.7972000000	  41.5885000000	  53.5297000000
H	  43.7077000000	  42.9788000000	  54.0158000000
O	  39.8141000000	  44.8966000000	  49.0458000000
O	  40.8495000000	  43.3501000000	  50.0372000000
C	  38.8035000000	  43.8617000000	  49.1661000000
C	  39.5694000000	  42.7966000000	  49.8568000000
C	  40.9660000000	  44.1776000000	  49.0018000000
H	  37.9761000000	  44.3130000000	  49.6663000000
H	  38.5308000000	  43.4942000000	  48.1461000000
H	  39.0154000000	  42.6524000000	  50.7709000000
H	  39.5616000000	  41.9774000000	  49.1489000000
H	  41.0257000000	  43.7320000000	  47.9828000000
H	  41.7253000000	  44.9223000000	  49.1075000000
F	  45.1680000000	  44.3864000000	  51.3168000000
F	  44.2742000000	  45.7383000000	  49.8190000000
O	  42.4667000000	  45.3337000000	  52.0612000000
C	  41.4530000000	  46.2508000000	  54.1169000000
C	  41.2593000000	  45.9946000000	  52.5836000000
C	  43.6709000000	  46.0882000000	  52.0512000000
C	  40.4906000000	  47.1318000000	  54.8133000000
C	  44.6732000000	  45.6242000000	  51.0809000000
H	  41.0275000000	  46.9368000000	  52.0596000000
H	  40.4390000000	  45.3751000000	  52.3088000000
H	  41.7092000000	  45.2952000000	  54.6495000000
H	  42.3943000000	  46.8799000000	  54.1321000000
H	  44.1030000000	  46.1305000000	  53.0385000000
H	  43.3520000000	  47.1374000000	  51.9247000000
H	  40.8621000000	  47.2347000000	  55.7976000000
H	  40.5140000000	  48.0648000000	  54.3064000000
H	  39.5076000000	  46.7748000000	  55.0023000000
H	  45.5330000000	  46.3334000000	  51.0890000000
