42

Li	   6.3445100000	  58.3705000000	  53.8187000000
O	   3.3367200000	  60.4981967456	  53.6244000000
O	   4.9109200000	  59.1604000000	  52.8874000000
C	   3.0280600000	  59.2515497456	  54.1345000000
C	   3.7038800000	  58.5054000000	  52.9687000000
C	   4.6054000000	  60.4496367456	  53.1456000000
H	   3.3963600000	  59.0500000000	  55.0799000000
H	   1.8982400000	  59.0976000000	  54.2707000000
H	   3.7611000000	  57.4327000000	  53.1425000000
H	   3.1556600000	  58.5939000000	  52.0663000000
H	   4.6817500000	  61.0415967456	  52.2701000000
H	   5.1388900000	  60.8652167456	  53.9936000000
N	   8.0433800000	  54.9242000000	  54.0573000000
S	   6.6156500000	  55.0483000000	  53.4109000000
O	   5.8119000000	  53.9221000000	  53.6513000000
O	   6.0511400000	  56.3774000000	  53.5046000000
C	   7.0219800000	  54.9585000000	  51.6515000000
F	   7.1371600000	  56.2101000000	  51.0784000000
F	   6.0243600000	  54.3290000000	  51.0124000000
F	   8.1128200000	  54.2871000000	  51.4042000000
S	   8.8533700000	  55.9297000000	  54.9776000000
O	   9.1819200000	  55.4282000000	  56.2824000000
O	   8.3982000000	  57.2821000000	  54.7574000000
C	  10.5095000000	  55.9522000000	  54.1634000000
F	  10.4448000000	  56.4267000000	  52.9528000000
F	  11.3813000000	  56.7116000000	  54.8394000000
F	  11.1025000000	  54.7601000000	  54.0211000000
N	   6.7016700000	  58.7867000000	  57.9868000000
S	   6.3485800000	  57.2932000000	  57.8597000000
O	   5.6842100000	  56.9348000000	  56.6251000000
O	   7.3443500000	  56.3918000000	  58.3598000000
C	   5.0229000000	  57.1968000000	  59.1186000000
F	   4.0336800000	  57.9780000000	  58.6935000000
F	   5.4149400000	  57.6078000000	  60.3423562650
F	   4.4173600000	  55.9891000000	  59.1946000000
S	   6.9854400000	  59.8080267456	  56.8425000000
O	   6.5649200000	  59.4268597456	  55.5118000000
O	   8.3195100000	  60.2723967456	  56.9610000000
C	   5.8133400000	  61.1914067456	  57.2439000000
F	   4.5566600000	  60.8751467456	  57.2083000000
F	   6.0313700000	  61.6742167456	  58.4483000000
F	   5.9277600000	  62.1731167456	  56.3919000000
