35

Li	  37.6150000000	  38.9622000000	  10.5408000000
O	  37.6164000000	  37.3352000000	  11.8397000000
O	  38.1676000000	  35.6767000000	  13.2740000000
C	  36.4847000000	  36.9142000000	  12.4643000000
C	  37.0328000000	  36.2721000000	  13.7775000000
C	  38.6644000000	  36.5411000000	  12.2918000000
H	  35.8057000000	  37.6843000000	  12.6956000000
H	  35.9570000000	  36.2666000000	  11.7787000000
H	  37.2951000000	  37.0157000000	  14.5839000000
H	  36.2971000000	  35.5623000000	  14.1448000000
H	  39.1031000000	  35.9845000000	  11.4764000000
H	  39.4635000000	  37.0994000000	  12.7640000000
N	  36.4257000000	  41.7729000000	  13.5170000000
S	  37.7855000000	  41.1465000000	  12.9038000000
O	  37.6894000000	  39.9088000000	  12.1738000000
O	  38.7529000000	  42.1189000000	  12.4519000000
C	  38.5483000000	  40.6099000000	  14.4654000000
F	  38.7354000000	  41.6241000000	  15.3809000000
F	  39.7898000000	  40.1032000000	  14.3051000000
F	  37.8943000000	  39.6311000000	  15.0717000000
S	  35.0091000000	  41.2416000000	  13.1003000000
O	  34.6089000000	  40.0977000000	  13.8783000000
O	  34.8103000000	  41.2500000000	  11.6770000000
C	  33.9628000000	  42.5473000000	  13.8756000000
F	  34.3100000000	  43.7619000000	  13.5732000000
F	  32.7348000000	  42.5786000000	  13.3961000000
F	  33.9111000000	  42.4759000000	  15.1686000000
S	  39.7101000000	  38.5913000000	   9.5561700000
S	  40.7575000000	  36.9997000000	   8.7329300000
S	  39.8694000000	  35.1790000000	   8.8973700000
S	  35.0828000000	  36.7739000000	   7.8983200000
S	  34.6394000000	  38.1012000000	   9.4848300000
S	  35.8288000000	  39.7464000000	   9.3760800000
S	  36.3757000000	  35.3078000000	   8.6128700000
S	  38.2552000000	  35.0721000000	   7.5947500000
