46

Li	  58.6784000000	  17.1864000000	   9.1225900000
N	  57.7300000000	  17.7876000000	   4.9388900000
S	  57.7925000000	  19.3342000000	   5.3093700000
O	  57.1161000000	  20.2417000000	   4.4094200000
O	  57.6809000000	  19.5423000000	   6.7265100000
C	  59.5592947271	  19.6949000000	   4.9547800000
F	  59.7290247271	  19.7580000000	   3.6844100000
F	  60.3187147271	  18.6700000000	   5.4166000000
F	  59.9248347271	  20.8542000000	   5.4242900000
S	  57.5015000000	  16.5704000000	   5.9165800000
O	  56.1807000000	  16.0427000000	   5.8805700000
O	  58.1167000000	  16.7873000000	   7.2192300000
C	  58.5414000000	  15.3598000000	   4.9816500000
F	  59.7788047271	  15.7067000000	   4.9742700000
F	  58.4423000000	  14.0806000000	   5.4438400000
F	  58.1393000000	  15.3273000000	   3.7409300000
N	  61.3521547271	  14.3131000000	   7.9082800000
S	  62.9294847271	  14.4163000000	   7.6793900000
O	  63.2730947271	  15.7054000000	   7.0719900000
O	  63.7777847271	  13.9139000000	   8.7209000000
C	  63.2525047271	  13.2121000000	   6.3206400000
F	  62.8776347271	  11.9826000000	   6.6054500000
F	  64.5721347271	  13.0323000000	   6.0690600000
F	  62.6441047271	  13.5231000000	   5.1676700000
S	  60.6074747271	  14.4735000000	   9.2560700000
O	  59.8522247271	  15.6868000000	   9.3465100000
O	  61.3564147271	  13.9534000000	  10.4146000000
C	  59.3673467271	  13.1860000000	   9.1196600000
F	  58.4346000000	  13.3959000000	   8.1594800000
F	  59.9534047271	  12.0789000000	   8.7224600000
F	  58.7033000000	  12.9866000000	  10.2558000000
N	  54.6256000000	  16.3774000000	  10.2335000000
S	  56.0176000000	  16.2401000000	  10.8746000000
O	  57.1905000000	  16.3430000000	  10.0040000000
O	  56.1284000000	  16.8360000000	  12.1978000000
C	  56.0436000000	  14.4297000000	  11.2032000000
F	  55.1659000000	  14.0692000000	  12.1273000000
F	  57.2099000000	  13.9625000000	  11.6960000000
F	  55.8596000000	  13.6979000000	  10.1185000000
S	  54.2823000000	  17.3493000000	   9.0273500000
O	  53.8619000000	  16.7546000000	   7.8277900000
O	  55.1702000000	  18.4573000000	   8.9684500000
C	  52.7161000000	  18.1003000000	   9.6849300000
F	  52.9398000000	  18.9673000000	  10.6669000000
F	  52.0950000000	  18.6790000000	   8.7054900000
F	  51.8719000000	  17.2828000000	  10.2672000000
