75

Li	   5.8515400000	  56.4387000000	  55.0722000000
O	   3.9275600000	  56.5505000000	  53.6086000000
O	   2.4918900000	  56.6016000000	  51.8558000000
C	   3.5101000000	  55.2603000000	  53.3775000000
C	   2.2578000000	  55.4325000000	  52.6610000000
C	   3.5285100000	  57.2470000000	  52.4398000000
H	   4.2990700000	  54.6102000000	  52.9406000000
H	   3.3415600000	  54.8464000000	  54.3511000000
H	   2.1084300000	  54.6115000000	  51.9559000000
H	   1.4164000000	  55.6300000000	  53.3692000000
H	   3.2982400000	  58.3239000000	  52.6584000000
H	   4.3930500000	  57.3541000000	  51.7452000000
F	   8.9059100000	  53.6429000000	  52.8602000000
F	   7.1949800000	  54.8004000000	  51.9524000000
O	   6.7032000000	  54.7536000000	  54.6481000000
C	   5.6904800000	  52.8240000000	  55.9901000000
C	   6.5758700000	  53.3025000000	  54.8393000000
C	   7.9418900000	  55.2181000000	  54.2150000000
C	   5.6615900000	  51.2910000000	  56.1498000000
C	   8.2636800000	  54.8256000000	  52.7965000000
H	   6.2141300000	  52.7303000000	  53.9705000000
H	   7.4823700000	  52.8298000000	  55.1407000000
H	   5.9758200000	  53.3349000000	  56.9610000000
H	   4.6492800000	  53.1371000000	  55.8664000000
H	   8.6796300000	  55.0600000000	  55.0196000000
H	   7.7673800000	  56.2885000000	  54.0886000000
H	   5.1365600000	  50.7660000000	  55.3968000000
H	   6.6638200000	  50.8353000000	  56.1875000000
H	   5.2018800000	  51.0566000000	  57.0891000000
H	   9.0608300000	  55.4558000000	  52.3641000000
N	   2.4304200000	  56.8428000000	  56.3373000000
S	   1.2296800000	  57.8146000000	  56.5934000000
O	   1.0767200000	  58.2425000000	  58.0050000000
O	   0.9483720000	  58.7743000000	  55.6124000000
C	  -0.2753947271	  56.7094000000	  56.3108000000
F	  -0.4137947271	  55.7923000000	  57.2445000000
F	  -0.4141947271	  56.1408000000	  55.1343000000
F	  -1.4151947271	  57.4487000000	  56.4978000000
S	   3.4093200000	  56.2244000000	  57.3757000000
O	   3.6882200000	  57.0520000000	  58.5735000000
O	   4.5244700000	  55.6987000000	  56.7106000000
C	   2.4664500000	  54.8357000000	  58.1756000000
F	   1.8603100000	  54.2257000000	  57.1206000000
F	   3.1596400000	  53.8722000000	  58.8607000000
F	   1.4479400000	  55.2673000000	  58.9714000000
N	   5.7005900000	  60.7216967456	  54.0922000000
S	   4.8075900000	  60.7282667456	  55.3993000000
O	   4.5626200000	  59.4037807456	  55.9125000000
O	   5.1400300000	  61.7714967456	  56.3419000000
C	   3.2432500000	  61.2386267456	  54.8059000000
F	   2.3944500000	  61.1398067456	  55.8137000000
F	   2.8257100000	  60.4017967456	  53.8652000000
F	   3.2646800000	  62.4496467456	  54.2966000000
S	   6.2473600000	  59.5249947456	  53.2661000000
O	   5.9801200000	  59.6427767456	  51.8444000000
O	   6.1223000000	  58.2061000000	  53.8358000000
C	   8.0742400000	  59.8459767456	  53.4527000000
F	   8.4879700000	  61.0729367456	  53.0360000000
F	   8.4541300000	  59.6838667456	  54.7028000000
F	   8.7785900000	  58.9321000000	  52.7906000000
N	   8.5058500000	  56.2123000000	  58.3982000000
S	   7.4476900000	  57.2192000000	  57.9106000000
O	   7.0562500000	  57.0946000000	  56.5367000000
O	   6.4100200000	  57.4351000000	  58.8699000000
C	   8.3877300000	  58.8498000000	  57.8995000000
F	   8.6970100000	  59.2096000000	  59.1146000000
F	   7.5801400000	  59.8441167456	  57.4528000000
F	   9.4923500000	  58.8573000000	  57.2565000000
S	   8.2424800000	  55.0876000000	  59.4545742650
O	   6.9020700000	  54.5588000000	  59.4542372650
O	   8.9987900000	  55.1600000000	  60.7091762650
C	   9.0162300000	  53.6696000000	  58.6369000000
F	  10.2995000000	  53.5231000000	  58.8176000000
F	   8.5247200000	  52.4952000000	  59.0352000000
F	   8.8362300000	  53.8075000000	  57.3584000000
