42

Li	  43.3623000000	  45.2578000000	  17.7221000000
O	  42.5529000000	  47.2594000000	  14.8662000000
O	  42.9808000000	  46.8487000000	  16.9338000000
C	  43.3595000000	  48.3463000000	  15.1837000000
C	  43.8896000000	  47.8202000000	  16.5399000000
C	  42.0008000000	  46.9001000000	  16.0296000000
H	  44.1498000000	  48.4043000000	  14.4273000000
H	  42.8003000000	  49.2871000000	  15.3441000000
H	  44.7497000000	  47.2175000000	  16.3941000000
H	  43.9160000000	  48.5114000000	  17.3761000000
H	  41.3721000000	  47.7485000000	  16.1812000000
H	  41.3566000000	  46.0044000000	  15.8973000000
O	  46.3326000000	  47.2869000000	  19.0059000000
O	  44.7554000000	  45.7870000000	  18.9802000000
C	  45.3810000000	  47.8207000000	  19.8887000000
C	  44.4626000000	  46.5626000000	  20.0915000000
C	  46.0675000000	  45.9859000000	  18.8066000000
H	  45.9068000000	  48.3178000000	  20.7399000000
H	  44.8816000000	  48.5955000000	  19.3887000000
H	  44.7099000000	  46.0939000000	  21.0058000000
H	  43.4411000000	  46.9591000000	  19.9690000000
H	  46.3565000000	  45.6199000000	  17.8234000000
H	  46.6488000000	  45.4538000000	  19.5567000000
O	  44.5047000000	  44.1348000000	  16.5878000000
O	  46.0714000000	  42.6395000000	  16.1675000000
C	  45.0187000000	  44.4312000000	  15.2886000000
C	  45.8951000000	  43.2776000000	  14.9465000000
C	  44.8353000000	  42.8008000000	  16.8507000000
H	  44.1758000000	  44.6721000000	  14.6159000000
H	  45.5723000000	  45.3289000000	  15.4265000000
H	  45.3839000000	  42.6235000000	  14.2733000000
H	  46.8135000000	  43.6615000000	  14.6018000000
H	  45.0125000000	  42.6925000000	  17.9253000000
H	  44.1357000000	  42.1145000000	  16.4090000000
S	  50.6617000000	  39.7493000000	  18.4293000000
S	  49.7192000000	  41.2149000000	  19.6188000000
S	  47.9118000000	  41.8128000000	  18.7134000000
S	  43.1300000000	  42.5384000000	  20.3251000000
S	  41.9536000000	  44.2867000000	  20.2462000000
S	  41.1703000000	  44.6561000000	  18.2005000000
S	  45.1308000000	  42.7316000000	  20.6885000000
S	  46.2486000000	  41.0679000000	  19.8679000000
