31

Li	  32.4223000000	  38.6607000000	  24.5157000000
O	  31.7532000000	  37.5932000000	  23.2421000000
O	  30.1328000000	  37.6468000000	  21.7146000000
C	  32.4469000000	  37.7280000000	  22.0267000000
C	  31.3769000000	  38.1631000000	  21.0655000000
C	  30.5294000000	  37.0981000000	  22.9312000000
H	  33.1825000000	  38.5082000000	  21.9750000000
H	  32.8544000000	  36.7374000000	  21.8073000000
H	  31.3174000000	  39.1924000000	  20.9443000000
H	  31.3510000000	  37.6698000000	  20.0440000000
H	  30.8174000000	  36.0270000000	  22.7575000000
H	  29.8700000000	  37.0489000000	  23.7655000000
O	  35.6248000000	  40.8101000000	  23.2523000000
O	  34.0365000000	  39.4975000000	  24.1860000000
C	  36.0365000000	  39.4487000000	  23.1759000000
C	  35.2446000000	  38.8957000000	  24.3807000000
C	  34.2770000000	  40.7586000000	  23.5694000000
H	  35.6454000000	  39.0877000000	  22.1935000000
H	  37.1649000000	  39.4112000000	  23.2967000000
H	  35.1165000000	  37.8335000000	  24.4162000000
H	  35.6981000000	  39.1736000000	  25.3456000000
H	  34.0021000000	  41.6779000000	  24.1014000000
H	  33.7547000000	  40.8607000000	  22.6533000000
S	  30.9778000000	  39.9238000000	  25.6025000000
S	  30.9869000000	  37.9982000000	  26.4852000000
S	  32.9505000000	  37.4581000000	  27.0742000000
S	  31.7103000000	  37.8617000000	  31.9779000000
S	  31.4193000000	  36.0705000000	  32.9862000000
S	  29.8495000000	  35.0270000000	  31.9217000000
S	  33.4435000000	  37.6384000000	  30.7373000000
S	  33.0507000000	  36.4337000000	  29.0082000000
