42

Li	  20.3225000000	   5.0898200000	  35.7372000000
O	  22.0280000000	   7.4515300000	  38.8917000000
O	  21.3724000000	   6.2588300000	  37.1327000000
C	  22.6142000000	   8.0213200000	  37.7014000000
C	  21.7014000000	   7.5445200000	  36.5711000000
C	  21.4826000000	   6.2641800000	  38.5146000000
H	  22.7968000000	   9.0829600000	  37.5558000000
H	  23.6632000000	   7.6413400000	  37.5839000000
H	  20.7618000000	   8.1819700000	  36.4907000000
H	  22.0697000000	   7.5007500000	  35.5804000000
H	  22.2685000000	   5.5242600000	  38.9174000000
H	  20.5938000000	   6.1351200000	  39.0763000000
O	  19.8790000000	   5.6407600000	  33.7130000000
O	  17.9031000000	   5.6940000000	  32.7138000000
C	  19.6637000000	   6.9722000000	  33.4454000000
C	  18.3317000000	   7.0528600000	  32.7624000000
C	  19.0073000000	   4.9615800000	  32.8655000000
H	  19.7270000000	   7.5356300000	  34.3572000000
H	  20.3551000000	   7.3072800000	  32.6468000000
H	  17.5137000000	   7.6292300000	  33.2749000000
H	  18.4125000000	   7.4394200000	  31.7457000000
H	  19.5787000000	   4.8680100000	  31.9138000000
H	  18.8009000000	   3.9260700000	  33.0782000000
O	  22.1430000000	   4.3523700000	  34.8919000000
O	  22.8480000000	   2.6889200000	  33.7389000000
C	  23.2966000000	   3.7805100000	  35.5405000000
C	  24.0416000000	   3.1843400000	  34.4113000000
C	  22.0415000000	   3.7003100000	  33.7033000000
H	  23.9806000000	   4.3814200000	  36.1833000000
H	  22.9057000000	   2.9335000000	  36.1556000000
H	  24.6022000000	   3.9194400000	  33.8510000000
H	  24.7018000000	   2.2997400000	  34.6909000000
H	  21.1107000000	   3.2553700000	  33.5614000000
H	  22.2373000000	   4.3979800000	  32.9179000000
S	  20.2032000000	   3.4839800000	  37.0127000000
S	  18.3093000000	   3.7921100000	  35.9420000000
S	  17.4998000000	   5.6685000000	  36.4885000000
S	  18.1786000000	   4.4066800000	  41.2352000000
S	  20.3271000000	   4.1988100000	  41.3099000000
S	  21.1844000000	   2.4399200000	  40.4510000000
S	  17.7344000000	   6.1091300000	  39.9884000000
S	  16.5731000000	   5.6711200000	  38.3268000000
