28

Li	   3.6528700000	  53.1728000000	  21.9668000000
O	   5.6123800000	  51.1640000000	  23.8810000000
O	   4.9213100000	  53.2699000000	  23.5178000000
C	   6.7459200000	  51.9315000000	  23.5296000000
C	   6.2071700000	  53.1894000000	  22.9429000000
C	   4.7121200000	  52.1716000000	  24.3024000000
H	   7.3312100000	  52.1670000000	  24.4785000000
H	   7.4183300000	  51.3160000000	  22.8590000000
H	   6.7739300000	  54.1635000000	  23.1935000000
H	   6.1800900000	  53.0595000000	  21.8709000000
H	   3.7371800000	  51.6741000000	  24.1108000000
H	   4.8109100000	  52.5412000000	  25.3536000000
S	   1.9076600000	  51.8981000000	  21.9125000000
S	   3.7721500000	  51.1437000000	  21.2495000000
S	   4.0282300000	  51.4579000000	  19.1975000000
S	   8.4458000000	  52.1979000000	  19.8689000000
S	   9.4159000000	  50.2945000000	  19.6091000000
S	  11.4329000000	  50.4440000000	  18.9187000000
S	   7.0884700000	  52.6413000000	  18.2681000000
S	   5.2170500000	  53.1737000000	  18.9504000000
S	   3.4701600000	  55.2585000000	  21.3604000000
S	   1.4281100000	  55.5830000000	  21.2085000000
S	   0.5518052729	  55.1410000000	  19.2681000000
S	  -2.2814947271	  51.0031000000	  17.4145000000
S	  -3.6963947271	  49.5086000000	  18.0598000000
S	  -3.7524947271	  47.8938000000	  16.7605000000
S	  -1.9895947271	  52.5976000000	  18.7477000000
S	  -0.0109947271	  53.1004000000	  19.1148000000
