53

Li	  48.4628000000	  28.9531000000	  19.8554000000
O	  51.7384000000	  28.2321000000	  21.6826000000
O	  49.7310000000	  27.9392000000	  20.7838000000
C	  51.8595000000	  27.0782000000	  20.8456000000
C	  50.5136000000	  26.9890000000	  20.1080000000
C	  50.3808000000	  28.1387000000	  22.0296000000
H	  52.7831000000	  27.1119000000	  20.2114000000
H	  51.9295000000	  26.2933000000	  21.5018000000
H	  50.5724000000	  27.1773000000	  19.0893000000
H	  50.1507000000	  26.0091000000	  20.2048000000
H	  50.2188000000	  27.2638000000	  22.6320000000
H	  50.0934000000	  28.9966000000	  22.6441000000
O	  46.9576000000	  28.3820000000	  20.7790000000
O	  46.1666000000	  26.7382000000	  22.0834000000
C	  46.2083000000	  29.0148000000	  21.8763000000
C	  46.3458000000	  27.9188000000	  22.9229000000
C	  46.7180000000	  27.0686000000	  20.8992000000
H	  46.7563000000	  29.9221000000	  22.0895000000
H	  45.1749000000	  29.1702000000	  21.5727000000
H	  47.3347000000	  27.8440000000	  23.3688000000
H	  45.5913000000	  28.0141000000	  23.7156000000
H	  46.1332000000	  26.8318000000	  20.0373000000
H	  47.5946000000	  26.5549000000	  20.7099000000
N	  47.3638000000	  32.8353000000	  20.5880000000
S	  46.0739000000	  32.2032000000	  19.9984000000
O	  46.2669000000	  31.0534000000	  19.1471000000
O	  44.9785000000	  32.1920000000	  20.9732000000
C	  45.6144000000	  33.4519000000	  18.7746000000
F	  44.8430000000	  32.9796000000	  17.8458000000
F	  46.6119000000	  34.0268000000	  18.1385000000
F	  44.9843000000	  34.4638000000	  19.3507000000
S	  48.5896000000	  32.1300000000	  21.1665000000
O	  48.8921000000	  30.8544000000	  20.4795000000
O	  48.6358000000	  32.1247000000	  22.6043000000
C	  49.8326000000	  33.3775000000	  20.5868000000
F	  49.5628000000	  34.6178000000	  21.0343000000
F	  51.0915000000	  33.1837000000	  20.8754000000
F	  49.7510000000	  33.5158000000	  19.2780000000
N	  49.9108000000	  29.0047000000	  15.9935000000
S	  51.1284000000	  29.2496000000	  15.1289000000
O	  50.9366000000	  28.8066000000	  13.7522000000
O	  51.7083000000	  30.5360000000	  15.4054000000
C	  52.3331000000	  28.0719000000	  15.7286000000
F	  52.0701000000	  26.7488000000	  15.4660000000
F	  52.4959000000	  28.1436000000	  16.9974000000
F	  53.5177000000	  28.2739000000	  15.1646000000
S	  49.1612000000	  29.9923000000	  17.0188000000
O	  49.8900000000	  31.2034000000	  17.3690000000
O	  48.3731000000	  29.3022000000	  17.9776000000
C	  48.0077000000	  30.7202000000	  15.8005000000
F	  48.6960000000	  31.3367000000	  14.9124000000
F	  47.3004000000	  29.8318000000	  15.1811000000
F	  47.1458000000	  31.6209000000	  16.3332000000
