43

Li	  19.6245000000	  54.1903000000	  38.2689000000
O	  20.8419000000	  57.9098000000	  37.8776000000
O	  20.7301000000	  55.7140000000	  38.4835000000
C	  20.2657000000	  57.8888000000	  39.1521000000
C	  19.8397000000	  56.4402000000	  39.3917000000
C	  21.4700000000	  56.6868000000	  37.7792000000
H	  21.1207000000	  58.1126000000	  39.8894000000
H	  19.3975000000	  58.5996000000	  39.3369000000
H	  20.2085000000	  56.2071000000	  40.4037000000
H	  18.8730000000	  56.1487000000	  39.0739000000
H	  21.6601000000	  56.3807000000	  36.7440000000
H	  22.4771000000	  56.7555000000	  38.2357000000
N	  21.2593000000	  52.4524000000	  34.6700000000
S	  21.3402000000	  53.6929000000	  33.7381000000
O	  20.0143000000	  54.1343000000	  33.2745000000
O	  22.3017000000	  54.7240000000	  34.2222000000
C	  22.0240000000	  52.9601000000	  32.2383000000
F	  22.1859000000	  53.8112000000	  31.2363000000
F	  21.2770000000	  52.0550000000	  31.6795000000
F	  23.1939000000	  52.4358000000	  32.5093000000
S	  21.2714000000	  52.1450000000	  36.1800000000
O	  20.3038000000	  51.1477000000	  36.7226000000
O	  21.4474000000	  53.3307000000	  36.9833000000
C	  22.9163000000	  51.4268000000	  36.4091000000
F	  23.1665000000	  50.4553000000	  35.5327000000
F	  23.9474000000	  52.2771000000	  36.4610000000
F	  22.9429000000	  50.8690000000	  37.5573000000
S	  18.9919000000	  57.3855000000	  33.5987000000
S	  17.6109000000	  56.8228000000	  32.1389000000
S	  15.6087000000	  57.5115000000	  32.5257000000
S	  15.0270000000	  54.4759000000	  36.3482000000
S	  16.6960000000	  55.1439000000	  37.4534000000
S	  18.6071000000	  55.0105000000	  36.3893000000
S	  14.0131000000	  56.0504000000	  35.3496000000
S	  14.4255000000	  55.9515000000	  33.2676000000
S	  19.2175000000	  52.9510000000	  40.0673000000
S	  18.0368000000	  51.7499000000	  38.8979000000
S	  15.9437000000	  51.7956000000	  39.3435000000
S	  14.4682000000	  46.8635000000	  40.3128000000
S	  16.0505000000	  45.6224000000	  39.8655000000
S	  17.4759000000	  45.9076000000	  41.4138000000
S	  14.4175000000	  48.7103000000	  39.3141000000
S	  15.1751000000	  50.2412000000	  40.5175000000
