64

Li	  49.5627000000	   3.0776400000	   6.1758500000
F	  47.4037000000	   5.1448400000	   5.7833100000
F	  47.5477000000	   3.7574700000	   7.4388100000
O	  49.8959000000	   4.8860200000	   7.1264600000
C	  52.3613000000	   4.5829400000	   6.6875300000
C	  51.1861000000	   5.5547700000	   7.1981500000
C	  48.8064000000	   5.6320200000	   7.6467100000
C	  52.1189000000	   4.4004700000	   5.1916600000
C	  47.4979000000	   5.0143400000	   7.1158300000
H	  51.3155000000	   6.5741400000	   6.7807500000
H	  51.2558000000	   5.8163800000	   8.3080700000
H	  53.3696000000	   4.9619800000	   6.8913900000
H	  52.3811000000	   3.6783300000	   7.3486400000
H	  48.8407000000	   6.7120700000	   7.3864000000
H	  48.8545000000	   5.5858800000	   8.7295500000
H	  51.1840000000	   3.9322600000	   5.0788400000
H	  52.0447000000	   5.4092100000	   4.7361100000
H	  52.9266000000	   3.8782900000	   4.6621600000
H	  46.6073000000	   5.5868800000	   7.4707300000
N	  48.2031000000	   2.3994900000	  10.3951000000
S	  49.4721000000	   1.8389600000	   9.7594200000
O	  49.7431000000	   0.4426732544	  10.0605000000
O	  49.7126000000	   2.2853700000	   8.4302200000
C	  50.7774000000	   2.6609100000	  10.8175000000
F	  51.9031000000	   2.7752100000	  10.1348000000
F	  51.0808000000	   2.0221200000	  11.9636000000
F	  50.4913000000	   3.9241700000	  11.1455000000
S	  46.9645000000	   1.5245600000	  10.6383000000
O	  47.1765000000	   0.1387732544	  10.5764000000
O	  45.7413000000	   2.0595700000	  10.0414000000
C	  46.6933000000	   1.8685100000	  12.4161000000
F	  45.7911000000	   1.0618400000	  12.9225000000
F	  47.7225000000	   1.6898000000	  13.2031000000
F	  46.2443000000	   3.0746200000	  12.6204000000
N	  50.1048000000	  -0.6411267456	   6.6652000000
S	  51.3701000000	  -0.0065267456	   5.9505700000
O	  51.7923000000	  -0.6292267456	   4.7161200000
O	  51.2468000000	   1.4247100000	   6.0247300000
C	  52.6541000000	  -0.4279267456	   7.1520200000
F	  52.7078000000	  -1.6920267456	   7.3899800000
F	  52.3142000000	   0.0330732544	   8.3542000000
F	  53.8513000000	   0.0095732544	   6.7996100000
S	  48.5983000000	  -0.2792267456	   6.6423500000
O	  48.3441000000	   1.0282000000	   6.0537300000
O	  47.8317000000	  -0.5946267456	   7.8204000000
C	  47.9681000000	  -1.5018267456	   5.3024500000
F	  48.2516000000	  -2.7432267456	   5.6477800000
F	  46.6436000000	  -1.3902267456	   5.2468000000
F	  48.4961000000	  -1.2625267456	   4.1058200000
N	  49.5176000000	   1.5569500000	   2.6523200000
S	  50.5230000000	   1.1852600000	   1.5304800000
O	  51.1730000000	   2.2566400000	   0.8137510000
O	  51.4131000000	   0.1397732544	   1.9128000000
C	  49.5086000000	   0.3406732544	   0.3110237350
F	  50.2354000000	  -0.2924267456	  -0.6329762650
F	  48.7624000000	   1.2583000000	  -0.2908762650
F	  48.6977000000	  -0.6251267456	   0.8166450000
S	  49.0731000000	   3.0243200000	   3.0487600000
O	  49.7510000000	   4.1336700000	   2.3088300000
O	  48.9334000000	   3.1448900000	   4.4492700000
C	  47.3022000000	   2.9515100000	   2.5171200000
F	  46.6813000000	   2.0241900000	   3.2437300000
F	  46.7302000000	   4.0900300000	   2.7255400000
F	  47.1732000000	   2.6447700000	   1.2154000000
