42

Li	  14.6521000000	  37.0297000000	  13.5514000000
F	  16.3281000000	  34.8017000000	  13.5593000000
F	  16.0575000000	  32.7778000000	  12.8213000000
O	  14.2039000000	  35.7616000000	  12.2876000000
C	  13.1222000000	  35.6788000000	  10.1130000000
C	  12.9941000000	  36.0179000000	  11.6177000000
C	  14.3719000000	  34.3631000000	  12.5075000000
C	  13.7962000000	  36.7748000000	   9.2860800000
C	  15.8281000000	  34.0815000000	  12.5671000000
H	  12.1791000000	  35.3449000000	  11.9374000000
H	  12.7779000000	  37.0627000000	  11.8475000000
H	  13.5577000000	  34.7588000000	   9.8257900000
H	  12.1397000000	  35.8033000000	   9.7500000000
H	  14.1330000000	  33.6619000000	  11.6726000000
H	  13.8350000000	  33.9206000000	  13.3749000000
H	  14.8339000000	  36.9197000000	   9.4884100000
H	  13.8122000000	  36.3473000000	   8.2300300000
H	  13.2334000000	  37.7492000000	   9.3343700000
H	  16.2403000000	  34.3742000000	  11.6048000000
N	  14.1017000000	  36.7609000000	  17.1773000000
S	  15.5793000000	  36.6880000000	  16.7771000000
O	  16.3621000000	  35.6294000000	  17.4258000000
O	  15.7482000000	  36.9328000000	  15.3568000000
C	  16.1017000000	  38.2656000000	  17.5093000000
F	  15.3107000000	  39.1957000000	  17.0556000000
F	  17.3073000000	  38.5623000000	  17.1499000000
F	  15.9631000000	  38.3670000000	  18.8971000000
S	  12.8652000000	  36.8039000000	  16.2356000000
O	  13.2088000000	  36.6613000000	  14.8174000000
O	  11.8721000000	  37.7764000000	  16.6820000000
C	  12.2476000000	  35.1181000000	  16.6294000000
F	  13.0002000000	  34.1819000000	  16.0478000000
F	  12.2044000000	  34.8802000000	  17.9440000000
F	  11.0606000000	  34.9544000000	  16.1204000000
S	  16.2782000000	  37.7068000000	  12.3471000000
S	  15.7330000000	  39.7344000000	  12.8731000000
S	  13.9819000000	  39.7139000000	  13.9976000000
S	   9.3939900000	  40.5045000000	  14.6378000000
S	   8.4110800000	  40.4479000000	  16.5033000000
S	   8.2405700000	  38.4326000000	  17.1569000000
S	  11.2340000000	  41.7252000000	  14.5315000000
S	  12.6111000000	  41.0320000000	  13.1148000000
