20

Li	   6.9373500000	  38.4191000000	  17.8944000000
O	   3.7971400000	  37.6274000000	  19.9764000000
O	   5.7596800000	  37.6980000000	  19.0643000000
C	   4.4778100000	  38.7424000000	  20.5574000000
C	   5.9408000000	  38.4124000000	  20.2938000000
C	   4.7025300000	  36.9557000000	  19.2349000000
H	   4.0396600000	  39.6581000000	  20.2505000000
H	   4.3181300000	  38.6914000000	  21.6577000000
H	   6.7078600000	  39.2015000000	  20.2772000000
H	   6.2971200000	  37.6685000000	  21.0466000000
H	   4.9424500000	  36.1982000000	  19.9557000000
H	   4.3036400000	  36.5490000000	  18.2753000000
S	  14.2340000000	  48.0174000000	  22.0046000000
S	  12.9724000000	  46.4776000000	  22.6510000000
S	  11.2223000000	  46.1693000000	  21.4834000000
S	   9.7268900000	  42.9695000000	  17.6445000000
S	   8.1144600000	  41.7727000000	  17.2776000000
S	   8.5104300000	  39.8744000000	  18.1346000000
S	   9.4511100000	  44.0419000000	  19.4344000000
S	  11.3826000000	  44.6037000000	  20.1148000000
