39

Li	  19.1659000000	   1.3653600000	  40.7160000000
O	  17.7630000000	   0.2404732544	  41.2536000000
O	  16.8489000000	  -1.2622267456	  42.6322000000
C	  17.6019000000	  -0.9779267456	  40.6018000000
C	  16.5841000000	  -1.8007267456	  41.3727000000
C	  16.9409000000	   0.1196732544	  42.3970000000
H	  17.3147000000	  -0.7052267456	  39.6264000000
H	  18.4978000000	  -1.5948267456	  40.4021000000
H	  15.5852000000	  -1.5695267456	  40.9352000000
H	  16.6826000000	  -2.9231267456	  41.4161000000
H	  17.3232000000	   0.7012732544	  43.2442000000
H	  15.9618000000	   0.5831732544	  42.1654000000
O	  18.4388000000	   5.3454700000	  40.0255000000
O	  18.6112000000	   3.1867600000	  40.7310000000
C	  17.9013000000	   4.5195000000	  39.0248000000
C	  17.5152000000	   3.3204600000	  39.8149000000
C	  19.1545000000	   4.4628100000	  40.7718000000
H	  17.1360000000	   5.0923100000	  38.4704000000
H	  18.7638000000	   4.3623800000	  38.3526000000
H	  16.5717000000	   3.4142900000	  40.4122000000
H	  17.4424000000	   2.4220700000	  39.2147000000
H	  20.1692000000	   4.4054400000	  40.4177000000
H	  19.2318000000	   4.8505700000	  41.8228000000
S	  15.9469000000	   2.4911100000	  36.7760000000
S	  14.9047000000	   0.7043732544	  36.3996000000
S	  15.5328000000	  -0.7957267456	  37.7215000000
S	  20.1431000000	  -1.7016267456	  36.7849000000
S	  20.9712000000	  -0.6024267456	  38.4067000000
S	  20.2573000000	   1.3732400000	  38.5721000000
S	  18.5160000000	  -2.8563267456	  37.4361000000
S	  16.7452000000	  -2.1666267456	  36.6074000000
S	  21.0960000000	   1.6084500000	  41.8402000000
S	  20.4146000000	   2.6697700000	  43.4667000000
S	  19.4828000000	   1.4211500000	  44.9090000000
S	  20.6970000000	  -1.6971267456	  48.9411000000
S	  18.8226000000	  -2.2239267456	  49.7509000000
S	  18.3170000000	  -4.2268267456	  49.7331000000
S	  20.6368000000	  -1.2320267456	  46.8310000000
S	  20.9058000000	   0.7135732544	  46.3377000000
