61

Li	  12.5666000000	   2.4690700000	  32.6157000000
O	  14.2464000000	  -0.4023267456	  34.4319000000
O	  13.8811000000	   1.6615000000	  33.7240000000
C	  15.4856000000	  -0.0923267456	  33.6983000000
C	  14.9622000000	   1.1573700000	  32.9667000000
C	  13.7220000000	   0.8202370000	  34.8065000000
H	  16.2690000000	   0.2090732544	  34.4522000000
H	  15.9035000000	  -0.9338267456	  33.1722000000
H	  15.6692000000	   1.8469200000	  32.9719000000
H	  14.7260000000	   0.9158140000	  31.8831000000
H	  12.7558000000	   0.5752732544	  35.0618000000
H	  14.2800000000	   1.0941000000	  35.6727000000
O	  13.7018000000	   4.0047100000	  32.5404000000
O	  13.6625000000	   6.1611900000	  31.8741000000
C	  14.7677000000	   4.1520600000	  31.6951000000
C	  14.4543000000	   5.4331100000	  30.9375000000
C	  13.4265000000	   5.2701700000	  32.9454000000
H	  15.7245000000	   4.1634200000	  32.1929000000
H	  14.8180000000	   3.3689900000	  30.9021000000
H	  15.4065000000	   5.9398200000	  30.6624000000
H	  13.9267000000	   5.2638000000	  30.0085000000
H	  12.4557000000	   5.3847400000	  33.3266000000
H	  14.1118000000	   5.5962300000	  33.7211000000
N	  10.9560000000	  -1.4227267456	  32.2625000000
S	  11.6419000000	  -0.6031267456	  31.1339000000
O	  11.0308000000	  -0.7661267456	  29.8203000000
O	  12.1120000000	   0.6898732544	  31.5726000000
C	  13.2625000000	  -1.5672267456	  30.9694000000
F	  13.7920000000	  -1.9044267456	  32.1252000000
F	  14.1632000000	  -0.8001267456	  30.3519000000
F	  13.0873000000	  -2.6529267456	  30.1975000000
S	   9.7691500000	  -0.9105267456	  33.1021000000
O	   8.5631100000	  -0.9140267456	  32.3618000000
O	  10.0448000000	   0.2400732544	  33.9580000000
C	   9.6317400000	  -2.2281267456	  34.3614000000
F	   8.9291400000	  -1.8695267456	  35.4306000000
F	   8.9661000000	  -3.2582267456	  33.9572000000
F	  10.8224000000	  -2.7041267456	  34.8906000000
N	  10.3503000000	   3.5937600000	  28.9737000000
S	  10.0081000000	   3.0826300000	  30.4248000000
O	   9.2781700000	   1.8413100000	  30.4173000000
O	  11.0803000000	   3.2595200000	  31.3289000000
C	   8.7815900000	   4.2021000000	  31.1728000000
F	   9.3331300000	   5.3638100000	  31.5043000000
F	   8.2985600000	   3.6624200000	  32.2725000000
F	   7.7925000000	   4.4190100000	  30.3763000000
S	  10.6275000000	   2.6807200000	  27.6880000000
O	  10.2812000000	   3.3171300000	  26.4501000000
O	  10.3179000000	   1.2710000000	  27.7946000000
C	  12.4849000000	   2.8168300000	  27.7351000000
F	  12.8413000000	   4.1040100000	  27.7034000000
F	  13.0390000000	   2.3314200000	  28.8288000000
F	  13.1137000000	   2.3389700000	  26.6935000000
S	  11.0440000000	   3.0564200000	  34.3584000000
S	  10.0164000000	   4.6361500000	  35.3882000000
S	  11.4551000000	   6.0824400000	  36.0962000000
S	  13.8776000000	   7.3566900000	  40.7578000000
S	  12.7389000000	   7.6799200000	  42.4350000000
S	  13.0536000000	   6.2574500000	  43.9903000000
S	  12.6602000000	   7.5930100000	  39.0514000000
S	  12.5133000000	   5.7565200000	  37.9266000000
