57

Li	  55.6921000000	   5.6672800000	  49.0801000000
F	  53.2393000000	   5.6108900000	  45.1226000000
F	  52.4664000000	   5.5692100000	  47.1021000000
O	  55.2713000000	   6.2154100000	  46.9881000000
C	  57.4478000000	   5.6609500000	  46.4237000000
C	  56.0363000000	   5.8189100000	  45.8380000000
C	  54.2550000000	   7.1327800000	  46.6508000000
C	  58.0563000000	   7.0147400000	  46.6813000000
C	  53.0178000000	   6.3560100000	  46.2106000000
H	  55.6867000000	   4.9256000000	  45.4771000000
H	  55.9922000000	   6.5285300000	  44.9899000000
H	  57.3974000000	   4.9651700000	  47.2534000000
H	  58.0618000000	   5.1541700000	  45.6576000000
H	  54.5551000000	   7.9681600000	  46.0135000000
H	  53.8793000000	   7.7021600000	  47.5431000000
H	  57.5522000000	   7.5273400000	  47.5152000000
H	  59.1047000000	   6.9445700000	  47.0316000000
H	  57.9782000000	   7.6781800000	  45.8232000000
H	  52.2747000000	   7.0495900000	  45.9346000000
N	  59.6469847271	   6.2384000000	  50.0040000000
S	  60.4979047271	   7.4311800000	  50.5845000000
O	  59.7564347271	   8.2602200000	  51.5405000000
O	  61.9009947271	   7.0400700000	  50.8843000000
C	  60.7083047271	   8.5808600000	  49.2259000000
F	  61.4577147271	   8.1162500000	  48.2310000000
F	  61.1970747271	   9.7028400000	  49.7763000000
F	  59.5837187271	   8.8824500000	  48.6220000000
S	  58.4642000000	   5.5890200000	  50.7032000000
O	  57.3747000000	   5.2031600000	  49.8188000000
O	  58.1053000000	   6.2447000000	  51.9596000000
C	  59.1626000000	   4.0425500000	  51.2537000000
F	  58.3125000000	   3.1708300000	  51.6399000000
F	  59.7954447271	   3.4317600000	  50.2438000000
F	  60.0948947271	   4.2504500000	  52.1498000000
N	  54.4686000000	   8.5651000000	  51.6192000000
S	  54.4528000000	   7.8030500000	  53.0233000000
O	  53.3952000000	   6.8599200000	  53.0908000000
O	  55.7599000000	   7.4482400000	  53.5012000000
C	  53.9960000000	   9.1733000000	  54.1328000000
F	  52.8221000000	   9.7546700000	  53.8906000000
F	  54.8808000000	  10.1674000000	  54.0311000000
F	  53.9040000000	   8.8108100000	  55.4593000000
S	  55.5895000000	   8.6104900000	  50.5789000000
O	  55.4940000000	   7.8307100000	  49.3949000000
O	  56.9005000000	   8.6754100000	  51.1599000000
C	  55.4284000000	  10.2750000000	  49.9099000000
F	  55.2362000000	  11.1769000000	  50.8725000000
F	  56.4676000000	  10.6007000000	  49.1460000000
F	  54.3709000000	  10.2836000000	  49.2159000000
S	  52.6875000000	  -0.2177267456	  39.9769000000
S	  51.9656000000	   0.9059150000	  41.6236000000
S	  52.6370000000	   0.0468732544	  43.3875000000
S	  54.7566000000	   3.0952000000	  47.2374000000
S	  54.6305000000	   3.2043200000	  49.4018000000
S	  53.9991000000	   5.0855400000	  50.1243000000
S	  53.9449000000	   1.1717500000	  46.6197000000
S	  52.4744000000	   1.3428200000	  45.0824000000
