43

Li	  39.2428000000	  21.6221000000	  11.6288000000
O	  42.1540000000	  24.3741000000	  11.3789000000
O	  40.4709000000	  22.8288000000	  11.1483000000
C	  41.1638000000	  24.9506000000	  10.5047000000
C	  40.4691000000	  23.7173000000	  10.0075000000
C	  41.6150000000	  23.1217000000	  11.8296000000
H	  40.5617000000	  25.7276000000	  11.0406000000
H	  41.6441000000	  25.5057000000	   9.7011300000
H	  39.4774000000	  23.8701000000	   9.6535900000
H	  41.0555000000	  23.3233000000	   9.1480000000
H	  42.4447000000	  22.3808000000	  11.5188000000
H	  41.6527000000	  23.0681000000	  12.8946000000
N	  39.7464000000	  17.9643000000	   9.4324100000
S	  39.7392000000	  16.3925000000	   9.7617100000
O	  40.9466000000	  15.8077000000	  10.2889000000
O	  38.4979000000	  15.9707000000	  10.3337000000
C	  39.4975000000	  15.8121000000	   8.0417100000
F	  38.5515000000	  16.4737000000	   7.3926200000
F	  39.1542000000	  14.5472000000	   7.9432900000
F	  40.5552000000	  16.0849000000	   7.2940000000
S	  40.7249000000	  19.0683000000	   9.9998500000
O	  41.8529000000	  18.5338000000	  10.7874000000
O	  40.0290000000	  20.2308000000	  10.5281000000
C	  41.4737000000	  19.7808000000	   8.4500200000
F	  42.0997000000	  20.9501000000	   8.6941200000
F	  42.3631000000	  18.9819000000	   7.9295700000
F	  40.5579000000	  20.0001000000	   7.6211400000
S	  39.0153000000	  21.1115000000	  13.5931000000
S	  39.3110000000	  19.0396000000	  13.8015000000
S	  38.1306000000	  18.2256000000	  15.3398000000
S	  39.2662000000	  14.0112000000	  17.6810000000
S	  40.7110000000	  12.4032000000	  17.6845000000
S	  41.1047000000	  11.8361000000	  19.6375000000
S	  39.9757000000	  15.6223000000	  16.5077000000
S	  39.2032000000	  17.5133000000	  16.9849000000
S	  37.2803000000	  21.9881000000	  10.6951000000
S	  36.5706000000	  23.8419000000	  11.3460000000
S	  37.9417000000	  24.5847000000	  12.8822000000
S	  33.8584000000	  25.0167000000	  14.7672000000
S	  32.5909000000	  26.6415000000	  14.6837000000
S	  31.9296000000	  27.0159000000	  16.6521000000
S	  35.8552000000	  25.5253000000	  15.3275000000
S	  37.2380000000	  24.0994000000	  14.8064000000
