49

Li	  51.4016000000	   1.7588500000	   2.3118400000
F	  50.3428000000	   6.2110600000	   1.8230100000
F	  49.0655000000	   4.5307600000	   1.8038600000
O	  51.6340000000	   3.5877400000	   1.9677900000
C	  52.9670000000	   4.0985100000	   0.0849237350
C	  52.7796000000	   4.3430500000	   1.5661500000
C	  50.9087000000	   4.1723600000	   3.0778200000
C	  53.8893000000	   5.0620100000	  -0.6181762650
C	  49.8486000000	   5.1780900000	   2.6203300000
H	  52.5905000000	   5.4201200000	   1.7735700000
H	  53.6327000000	   4.1372500000	   2.1754600000
H	  53.3578000000	   3.1298900000	  -0.1781762650
H	  51.9741000000	   4.1448800000	  -0.4206762650
H	  51.6094000000	   4.6512300000	   3.7808800000
H	  50.4452000000	   3.3956100000	   3.6588300000
H	  54.4213000000	   4.5742800000	  -1.4137762650
H	  53.3760000000	   5.9780600000	  -0.9715762650
H	  54.6539000000	   5.2289000000	   0.1245237350
H	  49.2869000000	   5.5920500000	   3.4095400000
N	  52.8914000000	  -0.0385267456	   5.4726100000
S	  53.7106000000	   1.1364000000	   4.7921300000
O	  55.1123000000	   0.9802780000	   4.8089300000
O	  53.1009000000	   1.6190900000	   3.5401100000
C	  53.3913000000	   2.4696600000	   5.9901000000
F	  54.0797000000	   3.5688000000	   5.7825100000
F	  53.7451000000	   2.0592900000	   7.1978700000
F	  52.1095000000	   2.8058700000	   5.9722300000
S	  51.3632000000	  -0.3130267456	   5.1732400000
O	  50.8192000000	   0.4513732544	   4.0682300000
O	  50.5687000000	  -0.4402267456	   6.3820800000
C	  51.4304000000	  -1.9756267456	   4.5043800000
F	  51.7210000000	  -2.7866267456	   5.4800100000
F	  50.3230000000	  -2.5017267456	   3.9467500000
F	  52.3235000000	  -2.0292267456	   3.6191500000
N	  50.1135000000	   0.4782732544	  -0.6292762650
S	  51.4610000000	  -0.1392267456	  -0.1941762650
O	  52.1185000000	   0.7534830000	   0.7353237350
O	  51.3283000000	  -1.4895267456	   0.1902237350
C	  52.4039000000	  -0.1394267456	  -1.7743762650
F	  51.6758000000	  -0.7904267456	  -2.6964762650
F	  53.5015000000	  -0.8024267456	  -1.5985762650
F	  52.6954000000	   1.0145800000	  -2.2648762650
S	  49.0387000000	   1.1671500000	   0.3093237350
O	  48.3338000000	   2.2450200000	  -0.3497762650
O	  49.4552000000	   1.5103300000	   1.6719800000
C	  47.7334000000	  -0.1923267456	   0.3804237350
F	  47.2836000000	  -0.6025267456	  -0.7585762650
F	  48.2277000000	  -1.2196267456	   1.1106700000
F	  46.6316000000	   0.2436732544	   1.0473900000
