49

Li	  35.4453000000	  55.0071000000	  12.5232000000
O	  34.7399000000	  53.4744000000	  13.2540000000
O	  34.6720000000	  51.6574000000	  14.6364000000
C	  33.3948000000	  53.4084000000	  13.7417000000
C	  33.4413000000	  52.2860000000	  14.8279000000
C	  35.1494000000	  52.1594000000	  13.4356000000
H	  32.9497000000	  54.4122000000	  14.0457000000
H	  32.8759000000	  52.9468000000	  12.8705000000
H	  33.3525000000	  52.6952000000	  15.8478000000
H	  32.6704000000	  51.6524000000	  14.6229000000
H	  34.7643000000	  51.5027000000	  12.6606000000
H	  36.1996000000	  51.9755000000	  13.3837000000
O	  39.3120000000	  56.4162000000	  13.2827000000
O	  37.3226000000	  55.3716000000	  12.9149000000
C	  39.4247000000	  55.2063000000	  13.9195000000
C	  37.9859000000	  54.7112000000	  13.9494000000
C	  38.3378000000	  56.1076000000	  12.3454000000
H	  40.1218000000	  54.3943000000	  13.4655000000
H	  39.8676000000	  55.2970000000	  14.9118000000
H	  37.9429000000	  53.5977000000	  13.8789000000
H	  37.6481000000	  54.9605000000	  15.0210000000
H	  37.8811000000	  56.9509000000	  11.9129000000
H	  38.6933000000	  55.6084000000	  11.5045000000
O	  35.5123000000	  54.5262000000	  10.7665000000
O	  34.7721000000	  52.5877000000	   9.8926300000
C	  36.6076000000	  53.6576000000	  10.5690000000
C	  36.1894000000	  52.5395000000	   9.6646700000
C	  34.4697000000	  53.9385000000	  10.0295000000
H	  37.3727000000	  54.3172000000	  10.2424000000
H	  36.9467000000	  53.1622000000	  11.5380000000
H	  36.4406000000	  52.8326000000	   8.5727300000
H	  36.7314000000	  51.6486000000	   9.9407300000
H	  33.4798000000	  54.2051000000	  10.5305000000
H	  34.4399000000	  54.4346000000	   9.1014700000
N	  34.0086000000	  59.2968187456	  11.3878000000
S	  34.0842000000	  58.2754000000	  12.5120000000
O	  34.8003000000	  57.0636000000	  12.3200000000
O	  34.0317000000	  58.8114000000	  13.8549000000
C	  32.3951000000	  57.6207000000	  12.3445000000
F	  31.4582000000	  58.5378000000	  12.5901000000
F	  32.1562000000	  56.5588000000	  13.0760000000
F	  32.1885000000	  57.2226000000	  11.0903000000
S	  34.6449000000	  60.7054367456	  11.4559000000
O	  34.8413000000	  61.1980367456	  10.1111000000
O	  35.5692000000	  61.0484067456	  12.4996000000
C	  33.1758000000	  61.7714467456	  11.9251000000
F	  32.5888000000	  61.3053667456	  12.9549000000
F	  33.6659000000	  62.9458467456	  12.2101000000
F	  32.2993000000	  61.8227367456	  10.9482000000
