60

Li	  12.1630000000	  11.9272000000	  45.2449000000
O	  13.2023000000	  10.2246000000	  43.9173000000
O	  13.3350000000	   8.1079800000	  43.0456000000
C	  14.4073000000	  10.0518000000	  43.2476000000
C	  14.2560000000	   8.8407700000	  42.3622000000
C	  12.5104000000	   9.0101100000	  43.7306000000
H	  14.6913000000	  10.9017000000	  42.6520000000
H	  15.1838000000	   9.7854400000	  43.9670000000
H	  13.8417000000	   9.0760000000	  41.3990000000
H	  15.1088000000	   8.2397600000	  42.1607000000
H	  12.1169000000	   8.5032800000	  44.6677000000
H	  11.7341000000	   9.1936400000	  43.0267000000
O	  13.8048000000	  12.4930000000	  46.1078000000
O	  15.0284000000	  13.3814000000	  47.7519000000
C	  14.6977000000	  11.4274000000	  46.4344000000
C	  15.3098000000	  11.9549000000	  47.7442000000
C	  14.5474000000	  13.6324000000	  46.4621000000
H	  14.0997000000	  10.5204000000	  46.5857000000
H	  15.4558000000	  11.3400000000	  45.6658000000
H	  14.9842000000	  11.3615000000	  48.5780000000
H	  16.3436000000	  11.8382000000	  47.8320000000
H	  15.4155000000	  13.6939000000	  45.8526000000
H	  13.8668000000	  14.5339000000	  46.3591000000
O	   8.9481000000	  10.6005000000	  43.4083000000
O	  10.6494000000	  11.8326000000	  44.2258000000
C	   9.6319600000	  11.0951000000	  42.2909000000
C	  10.8430000000	  11.8311000000	  42.8203000000
C	   9.2666100000	  11.6227000000	  44.3575000000
H	   9.9718400000	  10.2908000000	  41.6338000000
H	   9.0174700000	  11.7625000000	  41.6749000000
H	  11.8002000000	  11.4869000000	  42.4498000000
H	  10.7972000000	  12.7960000000	  42.3643000000
H	   8.7230000000	  12.5337000000	  44.1846000000
H	   8.9185600000	  11.2548000000	  45.3651000000
O	  10.1118000000	  10.0558000000	  48.7025000000
O	  10.9598000000	  11.0358000000	  46.8410000000
C	  10.2016000000	  11.4529000000	  48.9954000000
C	  10.9447000000	  12.0741000000	  47.8016000000
C	  10.9025000000	   9.8632300000	  47.5835000000
H	   9.1796600000	  11.7424000000	  48.8547000000
H	  10.7004000000	  11.6673000000	  49.9526000000
H	  10.2329000000	  12.8147000000	  47.3167000000
H	  11.9241000000	  12.5305000000	  48.1440000000
H	  11.8592000000	   9.5319200000	  47.8526000000
H	  10.4468000000	   9.1368300000	  46.9144000000
N	  12.3721000000	  15.4151000000	  43.5117000000
S	  11.1567000000	  15.1285000000	  44.3742000000
O	   9.9441200000	  14.7806000000	  43.6117000000
O	  11.5352000000	  14.2826000000	  45.4764000000
C	  10.8157000000	  16.7104000000	  45.2477000000
F	  11.8087000000	  17.1066000000	  46.0330000000
F	   9.7720700000	  16.6599000000	  46.0560000000
F	  10.6213000000	  17.6592000000	  44.3604000000
S	  13.2102000000	  14.3630000000	  42.7915000000
O	  12.8632000000	  14.1713000000	  41.3786000000
O	  13.4263000000	  13.2212000000	  43.6582000000
C	  14.8242000000	  15.1389000000	  42.7524000000
F	  15.3883000000	  15.1917000000	  43.9864000000
F	  15.6263000000	  14.5067000000	  41.9775000000
F	  14.8225000000	  16.3630000000	  42.2572000000
