42

Li	  31.0193000000	  46.2345000000	   2.5964900000
O	  34.2322000000	  44.0555000000	   1.3764600000
O	  32.2842000000	  45.0821000000	   1.6215500000
C	  33.3573000000	  43.3362000000	   0.5324237350
C	  31.9779000000	  44.0755000000	   0.6897237350
C	  33.6543000000	  45.3102000000	   1.4701000000
H	  33.5823000000	  43.4872000000	  -0.4891762650
H	  33.2962000000	  42.2161000000	   0.6531237350
H	  31.7016000000	  44.4818000000	  -0.2530762650
H	  31.0961000000	  43.4097000000	   1.0073600000
H	  34.1045000000	  45.6780000000	   2.3455000000
H	  33.8719000000	  45.8292000000	   0.5448237350
N	  29.7098000000	  49.3344000000	   1.6018000000
S	  31.0171000000	  48.7946000000	   0.7560460000
O	  31.5164000000	  47.5633000000	   1.2802400000
O	  30.9456000000	  48.9145000000	  -0.6717762650
C	  32.3479000000	  50.0369000000	   1.1935100000
F	  33.3445000000	  49.9762000000	   0.3422237350
F	  32.8243000000	  49.9710000000	   2.4204700000
F	  31.9650000000	  51.2712000000	   1.0860000000
S	  28.8782000000	  48.5307000000	   2.7078200000
O	  29.5523000000	  47.3192000000	   3.1764800000
O	  27.4627000000	  48.3703000000	   2.4012600000
C	  28.8448000000	  49.6448000000	   4.1266200000
F	  29.9990000000	  50.1393000000	   4.3891200000
F	  28.0934000000	  50.6654000000	   3.8904400000
F	  28.3555000000	  49.2041000000	   5.2740800000
N	  31.9340000000	  44.7652000000	   5.4880600000
S	  32.5070000000	  46.2187000000	   5.2875100000
O	  33.8742000000	  46.2746000000	   5.7559000000
O	  32.1501000000	  46.8449000000	   4.0300400000
C	  31.6276000000	  47.2285000000	   6.5753500000
F	  30.3772000000	  47.5980000000	   6.2236400000
F	  32.2916000000	  48.3149000000	   6.7734200000
F	  31.5884000000	  46.6073000000	   7.7648200000
S	  31.2649000000	  43.7682000000	   4.4333700000
O	  32.1732000000	  42.7920000000	   3.8826500000
O	  30.3407000000	  44.5298000000	   3.6051600000
C	  30.0939000000	  42.7798000000	   5.3668100000
F	  29.1363000000	  43.5249000000	   5.8720200000
F	  29.4713000000	  41.7895000000	   4.6722100000
F	  30.6508000000	  42.1587000000	   6.3869700000
