39

Li	  20.6783000000	  13.9536000000	  34.0859000000
N	  24.8203000000	  14.7718000000	  32.8197000000
S	  23.7878000000	  13.5814000000	  32.6461000000
O	  22.4958000000	  13.6887000000	  33.3801000000
O	  23.7224000000	  13.0078000000	  31.3309000000
C	  24.5311000000	  12.2671000000	  33.6900000000
F	  23.8116000000	  11.1604000000	  33.5973000000
F	  24.6163000000	  12.6042000000	  34.9609000000
F	  25.7126000000	  11.9560000000	  33.2118000000
S	  24.4266000000	  16.1939000000	  33.4013000000
O	  23.0184000000	  16.6984000000	  33.2038000000
O	  25.5171000000	  17.0993000000	  33.3135000000
C	  24.4374000000	  15.9570000000	  35.2364000000
F	  23.4061000000	  15.2209000000	  35.6640000000
F	  25.5364000000	  15.3207000000	  35.6685000000
F	  24.3324000000	  17.0907000000	  35.9329000000
N	  17.2358000000	  13.7356000000	  31.2493000000
S	  18.0439000000	  14.4075000000	  32.4313000000
O	  17.2395000000	  14.5433000000	  33.6071000000
O	  19.4211000000	  13.9659000000	  32.5965000000
C	  18.1112000000	  16.0980000000	  31.8580000000
F	  18.5225000000	  16.1140000000	  30.5819000000
F	  18.9249000000	  16.9136000000	  32.5278000000
F	  16.8580000000	  16.5668000000	  31.9146000000
S	  17.8237000000	  12.6403000000	  30.3058000000
O	  18.1777000000	  11.4160000000	  30.9648000000
O	  18.7152000000	  13.1153000000	  29.3164000000
C	  16.2492000000	  12.2775000000	  29.4823000000
F	  16.2172000000	  11.1135000000	  28.8259000000
F	  15.1608000000	  12.4029000000	  30.2734000000
F	  16.0864000000	  13.2752000000	  28.5868000000
S	  18.2974000000	   7.5733200000	  36.5946000000
S	  16.6586000000	   8.8802900000	  37.2430000000
S	  17.3606000000	  10.4034000000	  38.4713000000
S	  17.9440000000	  14.7592000000	  36.7518000000
S	  20.0093000000	  14.6898000000	  36.5557000000
S	  20.4337000000	  15.9887000000	  35.0372000000
S	  17.3812000000	  13.7682000000	  38.5484000000
S	  16.1580000000	  12.1034000000	  38.3639000000
