24

Li	  36.6614000000	   1.8634500000	  13.7373000000
N	  33.9783000000	   0.1107732544	  11.8619000000
S	  33.9372000000	  -1.3724267456	  11.3671000000
O	  33.8311000000	  -1.5758267456	   9.9905300000
O	  34.9524000000	  -2.1528267456	  12.0218000000
C	  32.2910000000	  -1.9552267456	  12.0789000000
F	  32.2650000000	  -1.6896267456	  13.4462000000
F	  32.1406000000	  -3.3083267456	  11.9352000000
F	  31.1995000000	  -1.3012267456	  11.6153000000
S	  34.8404000000	   1.3050800000	  11.2595000000
O	  35.4639000000	   0.9912890000	  10.0316000000
O	  35.6676000000	   2.0400900000	  12.2480000000
C	  33.5995000000	   2.5992600000	  10.9082000000
F	  32.9102000000	   2.9654300000	  11.9763000000
F	  34.1301000000	   3.7377500000	  10.4430000000
F	  32.7107000000	   2.1408200000	  10.0115000000
S	  37.9735000000	   0.1879732544	  13.3006000000
S	  39.3884000000	   1.6491400000	  12.4457000000
S	  38.6086000000	   2.9736700000	  10.9222000000
S	  36.6711000000	   4.3631500000	  14.6862000000
S	  34.9705000000	   3.2483600000	  15.1142000000
S	  35.3450000000	   1.2263500000	  15.2198000000
S	  36.5509000000	   5.1296600000	  12.7262000000
S	  38.4256000000	   4.9042400000	  11.8114000000
