31

Li	   6.6279400000	   6.1009600000	  42.8059000000
O	   8.2345300000	   7.1064700000	  42.6752000000
O	  10.2638000000	   6.4335600000	  43.4466000000
C	   9.0761900000	   6.8660500000	  41.5383000000
C	  10.4693000000	   6.9349700000	  42.1355000000
C	   9.0520000000	   7.0798400000	  43.7945000000
H	   8.6622600000	   6.0093400000	  41.1218000000
H	   9.0169500000	   7.7296700000	  40.8074000000
H	  11.1320000000	   6.2570800000	  41.6135000000
H	  10.6604000000	   7.9714000000	  42.1810000000
H	   9.1851300000	   8.1250300000	  44.0545000000
H	   8.5819600000	   6.6265700000	  44.6794000000
O	   6.0307100000	   8.3078000000	  45.8685000000
O	   5.5203900000	   7.3649100000	  43.8664000000
C	   5.8272500000	   6.9521000000	  46.1544000000
C	   4.8898800000	   6.5818600000	  44.9253000000
C	   5.7311300000	   8.5545700000	  44.5712000000
H	   6.7232100000	   6.3442000000	  46.1213000000
H	   5.4521300000	   7.0170000000	  47.1556000000
H	   4.8780000000	   5.5038600000	  44.7890000000
H	   3.8257000000	   6.8142000000	  45.0566000000
H	   4.9212400000	   9.2378900000	  44.5669000000
H	   6.6025600000	   9.2264200000	  44.1963000000
S	   5.1641400000	  -3.2821267456	  44.3025000000
S	   6.8212600000	  -1.9721267456	  44.2467000000
S	   6.2417200000	   0.0418732544	  44.0035000000
S	   7.5661900000	   4.1732100000	  43.7062000000
S	   6.6033200000	   3.9999400000	  41.8303000000
S	   5.4986900000	   5.7700000000	  41.1773000000
S	   6.5218700000	   3.3090100000	  45.2394000000
S	   7.0734300000	   1.2871600000	  45.4267000000
