49

Li	  34.8748000000	   8.8642300000	   8.8356000000
O	  38.1730000000	   8.6948800000	   7.2815100000
O	  36.1655000000	   7.9985900000	   7.9454300000
C	  38.5035000000	   7.6032100000	   8.0505400000
C	  37.1935000000	   7.2923600000	   8.7240300000
C	  36.8806000000	   8.4621800000	   6.8679800000
H	  38.9340000000	   6.8775700000	   7.4465700000
H	  39.2753000000	   7.7654500000	   8.7930800000
H	  37.1307000000	   6.2115800000	   8.7095300000
H	  37.2899000000	   7.6825800000	   9.7230400000
H	  36.5072000000	   9.4302000000	   6.4705000000
H	  36.7961000000	   7.6918800000	   6.0225400000
O	  35.9617000000	   9.7542100000	  10.0696000000
O	  37.6135000000	  10.8744000000	  10.9849000000
C	  35.8463000000	   9.5676300000	  11.4460000000
C	  36.7858000000	  10.6165000000	  12.0820000000
C	  36.8435000000	  10.8730000000	   9.8792500000
H	  34.7747000000	   9.6934100000	  11.6500000000
H	  36.1700000000	   8.4945300000	  11.6752000000
H	  36.2373000000	  11.4991000000	  12.2976000000
H	  37.2751000000	  10.3101000000	  13.0050000000
H	  37.3739000000	  10.9802000000	   8.9758200000
H	  36.1961000000	  11.7708000000	   9.9603200000
O	  33.8422000000	   7.2587500000	   9.4072700000
O	  31.9092000000	   6.0690200000	   9.5775500000
C	  33.4729000000	   7.0872500000	  10.7820000000
C	  32.6540000000	   5.8554100000	  10.7183000000
C	  32.8310000000	   6.6714300000	   8.6490100000
H	  34.3412000000	   7.1658200000	  11.4120000000
H	  32.7078000000	   7.8575200000	  11.0034000000
H	  33.4190000000	   5.1311900000	  10.5577000000
H	  32.0621000000	   5.6097600000	  11.6135000000
H	  32.3193000000	   7.3008200000	   7.9029900000
H	  33.2801000000	   5.7692300000	   8.1763400000
N	  31.7842000000	  10.7015000000	   7.1936000000
S	  32.6267000000	   9.9163200000	   6.1740100000
O	  33.2267000000	  10.6940000000	   5.1715000000
O	  33.4932000000	   8.9435300000	   6.8514200000
C	  31.3745000000	   8.8633600000	   5.2729300000
F	  31.9117000000	   7.8753800000	   4.5469500000
F	  30.6303000000	   9.6294600000	   4.5288200000
F	  30.5726000000	   8.2951400000	   6.1004400000
S	  32.0619000000	  10.9824000000	   8.6932300000
O	  31.8644000000	  12.3873000000	   8.9982400000
O	  33.2101000000	  10.2973000000	   9.2511500000
C	  30.6453000000	  10.1344000000	   9.4714000000
F	  30.3694000000	   8.8995900000	   8.9726500000
F	  30.8348000000	   9.9205300000	  10.7466000000
F	  29.4858000000	  10.7911000000	   9.2991000000
