28

Li	   9.7685600000	  48.5645000000	  22.1303000000
O	  11.7508000000	  48.1873000000	  22.4236000000
O	  13.8508000000	  48.7281000000	  22.9887000000
C	  12.5053000000	  46.9933000000	  22.4621000000
C	  13.9315000000	  47.6268000000	  22.1890000000
C	  12.5547000000	  49.1776000000	  22.9218000000
H	  12.4593000000	  46.5276000000	  23.4491000000
H	  12.0323000000	  46.3056000000	  21.7476000000
H	  14.6446000000	  46.8525000000	  22.4475000000
H	  14.1513000000	  47.8130000000	  21.1409000000
H	  12.4675000000	  50.0633000000	  22.2737000000
H	  12.2878000000	  49.4273000000	  23.9341000000
S	   0.1016052729	  50.8933000000	  17.8954000000
S	   2.0757900000	  51.2588000000	  18.3855000000
S	   3.3378200000	  49.7514000000	  17.5914000000
S	   8.3253300000	  49.6704000000	  17.8645000000
S	   8.2731300000	  49.1217000000	  19.8062000000
S	   9.3627600000	  47.4158000000	  20.4332000000
S	   6.5876200000	  48.9503000000	  16.8686000000
S	   5.0763500000	  50.4003000000	  16.6744000000
S	  15.9438000000	  55.2240000000	  25.3930000000
S	  13.8363000000	  55.1952000000	  25.8477000000
S	  12.7868000000	  54.1774000000	  24.2470000000
S	   9.5198100000	  50.9527000000	  22.8328000000
S	   8.0608900000	  49.5095000000	  23.3105000000
S	   8.8421800000	  47.5885000000	  23.7682000000
S	   9.9968200000	  52.0891000000	  24.5378000000
S	  12.0860000000	  52.2684000000	  24.7173000000
