46

Li	  47.2855000000	  34.0978000000	  16.7209000000
O	  47.8917000000	  32.1415000000	  17.2287000000
O	  48.5770000000	  30.0295000000	  17.3160000000
C	  47.9866000000	  31.7946000000	  18.5672000000
C	  48.1668000000	  30.2508000000	  18.6075000000
C	  48.1400000000	  30.9666000000	  16.4904000000
H	  48.7546000000	  32.2174000000	  19.2256000000
H	  47.0274000000	  31.8449000000	  19.0539000000
H	  48.7767000000	  29.8340000000	  19.4376000000
H	  47.1769000000	  29.7952000000	  18.7710000000
H	  47.2936000000	  30.5550000000	  15.9829000000
H	  48.9061000000	  31.2699000000	  15.7490000000
O	  43.6532000000	  33.3693000000	  16.2651000000
O	  45.8430000000	  33.2128000000	  16.0069000000
C	  43.8855000000	  33.0942000000	  14.8806000000
C	  45.3840000000	  32.7828000000	  14.7492000000
C	  44.8170000000	  32.9748000000	  16.8891000000
H	  43.2717000000	  32.2051000000	  14.5802000000
H	  43.5816000000	  33.8780000000	  14.2766000000
H	  45.4892000000	  31.7435000000	  14.6249000000
H	  45.9432000000	  33.3835000000	  13.9884000000
H	  44.8570000000	  33.5424000000	  17.8257000000
H	  44.6943000000	  31.8985000000	  17.1906000000
N	  50.7224000000	  33.8316000000	  15.2609000000
S	  50.7590000000	  33.8731000000	  16.8010000000
O	  49.5260000000	  34.3486000000	  17.3815000000
O	  51.3811000000	  32.7534000000	  17.4980000000
C	  51.8443000000	  35.3882000000	  17.0446000000
F	  51.2761000000	  36.4730000000	  16.4380000000
F	  53.0578000000	  35.2094000000	  16.6025000000
F	  51.9968000000	  35.6292000000	  18.3021000000
S	  49.5055000000	  34.3648000000	  14.3736000000
O	  49.7821000000	  35.5846000000	  13.7145000000
O	  48.2413000000	  34.2509000000	  14.9729000000
C	  49.4740000000	  33.2241000000	  12.9543000000
F	  48.9402000000	  32.0985000000	  13.3456000000
F	  48.7243000000	  33.6845000000	  11.9674000000
F	  50.7310000000	  32.9549000000	  12.5186000000
S	  46.5718000000	  35.7231000000	  18.0391000000
S	  46.3037000000	  36.6298000000	  16.0276000000
S	  44.3103000000	  37.2753000000	  15.7243000000
S	  43.0398000000	  40.5569000000	  12.5015000000
S	  42.4570000000	  38.9746000000	  11.2073000000
S	  43.3672000000	  39.2075000000	   9.3246400000
S	  44.6961000000	  40.1969000000	  13.7085000000
S	  44.2014000000	  39.3552000000	  15.5476000000
