71

Li	  32.9445000000	  20.7176000000	  56.6993000000
O	  33.0638000000	  20.0268000000	  54.6687000000
O	  34.2883000000	  18.8246000000	  53.2439000000
C	  32.2094000000	  19.0987000000	  54.0024000000
C	  33.2342000000	  18.0725000000	  53.6493000000
C	  34.0787000000	  20.0886000000	  53.8014000000
H	  31.4389000000	  18.7455000000	  54.7945000000
H	  31.7719000000	  19.4613000000	  53.0944000000
H	  33.5129000000	  17.4063000000	  54.4709000000
H	  32.8834000000	  17.3281000000	  52.9566000000
H	  33.8794000000	  20.8943000000	  53.1434000000
H	  34.9310000000	  20.5490000000	  54.2594000000
F	  32.4517000000	  23.6071000000	  61.0811487854
F	  31.6164000000	  25.1392000000	  62.3753687854
F	  31.7807000000	  25.5152000000	  60.2831187854
F	  29.4514000000	  19.2790000000	  56.5315000000
F	  29.2975000000	  20.1805000000	  54.5562000000
F	  30.7319000000	  20.9093000000	  56.1373000000
O	  30.0923000000	  22.9533000000	  59.9530687854
O	  28.7359000000	  22.1058000000	  57.5626000000
C	  28.7821000000	  22.3352000000	  59.9217087854
C	  28.7639000000	  21.3164000000	  58.7801000000
C	  30.1828000000	  24.0016000000	  60.9607287854
C	  28.3950000000	  21.3235000000	  56.4411000000
C	  31.5624000000	  24.5593000000	  61.2310087854
C	  29.5109000000	  20.3973000000	  55.8815000000
H	  28.7071000000	  21.8040000000	  60.8034387854
H	  27.9784000000	  23.0906000000	  59.7961087854
H	  29.5898000000	  20.6686000000	  58.8822000000
H	  27.8634000000	  20.7967000000	  59.0355087854
H	  29.7536000000	  23.7415000000	  61.9405287854
H	  29.4879000000	  24.7453000000	  60.6180287854
H	  27.6274000000	  20.6093000000	  56.6029000000
H	  28.0700000000	  22.0536000000	  55.6617000000
F	  36.7863000000	  20.1865000000	  56.3622000000
F	  35.2725000000	  18.5965000000	  56.5572000000
F	  37.0768000000	  18.5359000000	  57.7105000000
F	  31.2690000000	  24.7026000000	  54.3155000000
F	  33.3865000000	  24.7574000000	  54.7346000000
F	  32.4811000000	  22.9261000000	  54.1391000000
O	  34.4027000000	  20.9197000000	  57.8163000000
O	  32.8112000000	  22.6286000000	  56.8047000000
C	  34.0251000000	  21.9973000000	  58.6877000000
C	  32.6657000000	  22.3272000000	  58.1907000000
C	  35.5595000000	  20.2360000000	  58.3219000000
C	  31.9800000000	  23.7758000000	  56.3236000000
C	  36.1576000000	  19.3417000000	  57.2070000000
C	  32.2980000000	  24.0428000000	  54.8365000000
H	  33.9003000000	  21.7088000000	  59.7308587854
H	  34.5921000000	  22.9327000000	  58.4848000000
H	  31.9103000000	  21.6037000000	  58.4260000000
H	  32.2839000000	  23.2966000000	  58.6229000000
H	  35.4325000000	  19.5113000000	  59.2008387854
H	  36.2750000000	  20.9484000000	  58.6384000000
H	  30.9084000000	  23.5998000000	  56.3644000000
H	  32.2229000000	  24.6174000000	  56.8704000000
N	  31.7549000000	  18.0833000000	  59.8645687854
S	  32.6300000000	  17.8367000000	  58.5770000000
O	  32.3984000000	  18.8760000000	  57.6111000000
O	  33.9755000000	  17.4494000000	  58.8979000000
C	  31.9663000000	  16.3010000000	  57.7785000000
F	  32.4523000000	  16.0935000000	  56.5596000000
F	  30.6159000000	  16.3506000000	  57.6520000000
F	  32.1897000000	  15.2194000000	  58.4839000000
S	  31.8967000000	  17.1686000000	  61.1471887854
O	  33.1218000000	  16.4088000000	  61.2753887854
O	  30.7010000000	  16.5260000000	  61.6055187854
C	  32.2461000000	  18.4153000000	  62.3996187854
F	  33.3514000000	  19.1499000000	  62.2558787854
F	  31.2601000000	  19.2849000000	  62.5022987854
F	  32.3183000000	  17.8197000000	  63.5556187854
