64

Li	  11.5971000000	  36.3939000000	   1.1021600000
O	   9.9380900000	  35.9553000000	   1.9183000000
O	   7.9871100000	  35.4075000000	   1.0533612146
C	   9.5477500000	  34.8416000000	   2.6450400000
C	   8.1203300000	  34.6781000000	   2.2281700000
C	   8.8298400000	  36.4958000000	   1.3018400000
H	  10.0605000000	  34.0007000000	   2.1665700000
H	   9.6831500000	  34.8810000000	   3.7064300000
H	   7.7082300000	  33.6663000000	   2.2679800000
H	   7.5365100000	  35.1829000000	   2.8952000000
H	   8.3275900000	  37.1845000000	   2.0450800000
H	   9.0322500000	  37.0642000000	   0.3976612146
O	  13.0755000000	  37.4458000000	  -0.0522387854
O	  15.0634000000	  38.5520000000	  -0.3320387854
C	  13.2460000000	  37.6758000000	  -1.4597387854
C	  14.1860000000	  38.9161000000	  -1.3650387854
C	  14.3358000000	  37.6778000000	   0.4751612146
H	  13.7448000000	  36.7089000000	  -1.9557387854
H	  12.4109000000	  37.9771000000	  -2.0825387854
H	  14.6978000000	  39.0846000000	  -2.3016387854
H	  13.6098000000	  39.7163000000	  -1.0919387854
H	  14.3595000000	  38.2395000000	   1.3762100000
H	  14.8879000000	  36.7437000000	   0.5047612146
O	  12.7174000000	  35.3888000000	   2.3501900000
O	  14.2211000000	  34.1337000000	   3.3992000000
C	  12.7761000000	  35.8657000000	   3.6745300000
C	  14.1579000000	  35.3453000000	   4.1545100000
C	  13.3048000000	  34.1277000000	   2.3585800000
H	  12.7110000000	  36.8994000000	   3.6166300000
H	  11.9736000000	  35.4913000000	   4.2544500000
H	  14.9125000000	  36.0290000000	   3.8618500000
H	  14.2414000000	  35.1534000000	   5.2429700000
H	  12.5634000000	  33.3611000000	   2.5093900000
H	  13.8279000000	  34.0241000000	   1.4137600000
N	  10.9068000000	  32.9695000000	  -0.8588387854
S	   9.8246900000	  31.8364000000	  -0.5574387854
O	   8.6170600000	  32.2951000000	   0.0535612146
O	   9.6012200000	  30.8409000000	  -1.5955387854
C	  10.6418000000	  30.8412000000	   0.7212612146
F	  11.9309000000	  30.5769000000	   0.4396612146
F	  10.0431000000	  29.7060000000	   0.9578612146
F	  10.6452000000	  31.4579000000	   1.9285500000
S	  10.5867000000	  34.4627000000	  -1.2397387854
O	  11.4247000000	  35.3721000000	  -0.4674387854
O	   9.1954900000	  34.8314000000	  -1.5345387854
C	  11.3074000000	  34.4883000000	  -2.9023387854
F	  12.5887000000	  34.3153000000	  -2.9186387854
F	  10.8352000000	  33.5295000000	  -3.5365387854
F	  11.1634000000	  35.6137000000	  -3.5822387854
N	  12.3911000000	  40.1981000000	   3.3512200000
S	  11.1974000000	  39.3625000000	   2.9348200000
O	  11.5876000000	  38.3097000000	   2.0404600000
O	  10.2372000000	  38.9684000000	   3.8905700000
C	  10.3591000000	  40.6576000000	   1.8821500000
F	  11.1881000000	  41.5250000000	   1.3201500000
F	   9.4895800000	  41.3570000000	   2.6036400000
F	   9.6562000000	  40.1382000000	   0.9166612146
S	  13.0259000000	  40.3946000000	   4.7530400000
O	  12.6437000000	  39.4079000000	   5.8033800000
O	  13.0885000000	  41.7701000000	   5.1958300000
C	  14.8000000000	  39.8478000000	   4.3806900000
F	  15.5457000000	  39.9135000000	   5.4882300000
F	  14.7839000000	  38.6504000000	   3.8519600000
F	  15.3042000000	  40.6528000000	   3.4476100000
