31

Li	  44.3460000000	  34.1752000000	  31.5256000000
F	  48.0422000000	  33.7462000000	  28.2384000000
F	  47.1868000000	  32.5420000000	  29.8342000000
F	  47.4686000000	  34.5607000000	  30.0877000000
F	  40.1647000000	  36.0530000000	  31.6189000000
F	  39.9787000000	  34.8625000000	  33.4905000000
F	  41.6060000000	  36.0641000000	  33.1953000000
O	  44.7708000000	  34.2482000000	  29.6091000000
O	  42.6812000000	  34.6477000000	  31.2194000000
C	  43.5333000000	  34.4604000000	  28.9595000000
C	  42.4576000000	  35.0980000000	  29.8752000000
C	  45.7427000000	  34.1007000000	  28.5401000000
C	  41.5685000000	  34.1882000000	  31.8985000000
C	  47.0932000000	  33.7100000000	  29.2099000000
C	  40.7570000000	  35.2771000000	  32.5309000000
H	  43.6713000000	  35.0292000000	  28.1131000000
H	  43.1445000000	  33.4864000000	  28.5669000000
H	  42.6480000000	  36.1877000000	  29.9790000000
H	  41.4801000000	  34.9870000000	  29.4191000000
H	  45.8406000000	  34.9575000000	  27.8906000000
H	  45.5036000000	  33.2400000000	  27.8716000000
H	  41.0085000000	  33.4741000000	  31.3692000000
H	  41.9744000000	  33.5759000000	  32.7761000000
S	  45.0601000000	  35.9962000000	  32.5860000000
S	  44.6691000000	  34.3333000000	  33.8116000000
S	  45.3727000000	  32.6127000000	  32.6149000000
S	  43.5905000000	  30.6217000000	  28.5924000000
S	  44.7276000000	  30.0371000000	  26.8994000000
S	  43.6506000000	  29.1348000000	  25.3545000000
S	  44.3621000000	  30.1444000000	  30.5188000000
S	  43.7523000000	  31.5341000000	  31.8771000000
