60

Li	   6.1242400000	  21.7140000000	   1.2540000000
O	   7.6781600000	  20.1878000000	   0.3967612146
O	   9.5196400000	  19.3740000000	  -0.6612387854
C	   8.6534400000	  19.7543000000	   1.3739100000
C	   9.5636700000	  18.7783000000	   0.6368612146
C	   8.4407400000	  20.2740000000	  -0.7263387854
H	   9.2661700000	  20.5619000000	   1.7020200000
H	   8.2606100000	  19.3444000000	   2.2476900000
H	  10.5906000000	  18.7346000000	   1.0666612146
H	   9.1765300000	  17.7848000000	   0.7607612146
H	   7.8411700000	  19.9930000000	  -1.6315387854
H	   8.7743400000	  21.3576000000	  -0.9330387854
O	   2.8172000000	  24.4154000000	   0.5484612146
O	   4.6626000000	  23.0752000000	   1.1583300000
C	   2.4858100000	  23.6883000000	   1.7237800000
C	   3.7913800000	  23.1032000000	   2.3008300000
C	   4.2132300000	  24.2102000000	   0.4031612146
H	   2.0351200000	  24.3892000000	   2.3819200000
H	   1.7414100000	  22.9234000000	   1.4633500000
H	   4.2116900000	  23.6441000000	   3.1685300000
H	   3.7042600000	  22.0007000000	   2.5784800000
H	   4.4927500000	  24.0097000000	  -0.6406387854
H	   4.8510700000	  25.0431000000	   0.7245612146
O	   6.2317400000	  22.0855000000	   5.3201100000
O	   6.4189900000	  21.2477000000	   3.2537700000
C	   5.8649600000	  20.7098000000	   5.4722500000
C	   6.3750300000	  20.1490000000	   4.1238000000
C	   6.8016800000	  22.3331000000	   4.1407400000
H	   6.3985200000	  20.2895000000	   6.3058400000
H	   4.8194600000	  20.6249000000	   5.7952000000
H	   7.3971400000	  19.7274000000	   4.2570600000
H	   5.6415100000	  19.4158000000	   3.7919500000
H	   6.6123000000	  23.3498000000	   3.8137600000
H	   7.8623100000	  22.3256000000	   4.3640200000
O	   4.4316600000	  17.9987000000	   0.2346612146
O	   4.8600200000	  20.0647000000	   0.9432612146
C	   3.6368100000	  18.7265000000	  -0.5304387854
C	   4.3389100000	  20.0672000000	  -0.3958387854
C	   4.8143800000	  18.7682000000	   1.3369400000
H	   3.6629600000	  18.3059000000	  -1.5225387854
H	   2.5947300000	  18.6414000000	  -0.1557387854
H	   5.2678400000	  20.1911000000	  -0.9554387854
H	   3.6941400000	  20.9429000000	  -0.6201387854
H	   4.1546000000	  18.6291000000	   2.2056200000
H	   5.8036500000	  18.5084000000	   1.6754800000
N	  10.2343000000	  23.3085000000	   0.8246612146
S	   8.7945000000	  23.8143000000	   0.4211612146
O	   8.7236700000	  24.2607000000	  -0.9232387854
O	   7.7271400000	  22.9743000000	   0.9243612146
C	   8.6389800000	  25.3879000000	   1.4017400000
F	   7.4245100000	  25.8797000000	   1.2593100000
F	   9.5524500000	  26.3283000000	   1.2346500000
F	   8.7206500000	  25.0072000000	   2.6681100000
S	  11.6325000000	  23.8296000000	   0.2525612146
O	  12.3985000000	  24.3925000000	   1.2843500000
O	  11.5501000000	  24.4899000000	  -1.0188387854
C	  12.4012000000	  22.2055000000	  -0.2211387854
F	  11.7550000000	  21.5536000000	  -1.1947387854
F	  13.6846000000	  22.4187000000	  -0.6162387854
F	  12.5267000000	  21.3111000000	   0.8217612146
