50

Li	   9.1624000000	  34.8438000000	  13.8447000000
O	  10.3669000000	  36.4640000000	  10.4663000000
O	   9.5535500000	  35.2445000000	  12.2124000000
C	   9.3690700000	  37.1563000000	  11.2258000000
C	   8.5274500000	  36.1636000000	  11.9049000000
C	  10.2989000000	  35.1874000000	  10.9584000000
H	   9.8073500000	  37.7878000000	  11.9864000000
H	   8.7756700000	  37.6363000000	  10.4847000000
H	   7.9910400000	  36.4812000000	  12.7884000000
H	   7.7483200000	  35.7368000000	  11.2129000000
H	   9.6344000000	  34.6546000000	  10.2364000000
H	  11.2333000000	  34.6048000000	  11.0252000000
N	  12.6521000000	  33.1300000000	  13.7038000000
S	  11.3885000000	  32.2890000000	  14.1061000000
O	  11.4547000000	  31.7151000000	  15.4210000000
O	  10.2370000000	  33.0639000000	  13.8046000000
C	  11.3803000000	  30.9922000000	  12.7961000000
F	  12.5636000000	  30.4633000000	  12.6339000000
F	  11.1004000000	  31.5449000000	  11.6136000000
F	  10.4615000000	  30.0390000000	  12.9533000000
S	  13.4635000000	  33.9009000000	  14.8463000000
O	  14.7160000000	  33.2498000000	  15.0947000000
O	  12.5893000000	  34.3452000000	  15.9211000000
C	  14.0093000000	  35.4433000000	  13.9261000000
F	  14.8171000000	  36.1633000000	  14.6709000000
F	  14.6524000000	  35.1937000000	  12.8108000000
F	  12.9878000000	  36.2297000000	  13.6462000000
N	   6.8200000000	  32.3910000000	  11.9927000000
S	   6.9232400000	  32.5083000000	  13.5524000000
O	   7.1442200000	  31.2677000000	  14.3193000000
O	   7.5434500000	  33.7741000000	  13.9362000000
C	   5.0594300000	  32.8964000000	  13.8358000000
F	   4.7633400000	  34.0319000000	  14.3701000000
F	   4.6252600000	  32.0381000000	  14.7544000000
F	   4.2694200000	  32.8189000000	  12.7642000000
S	   6.8583800000	  31.1402000000	  11.0382000000
O	   5.6708100000	  30.3927000000	  10.6991000000
O	   8.0125400000	  30.3274000000	  11.2542000000
C	   7.4079900000	  31.9091000000	   9.4550900000
F	   6.7119500000	  32.9231000000	   9.0720600000
F	   8.6288200000	  32.4205000000	   9.5544100000
F	   7.3538700000	  31.0828000000	   8.4842300000
S	   9.8969700000	  36.3872000000	  15.2432000000
S	   9.2243000000	  34.8084000000	  16.4662000000
S	   8.7284600000	  35.3493000000	  18.3949000000
S	   4.3824300000	  36.3713000000	  16.5776000000
S	   2.7657400000	  37.7759000000	  16.5148000000
S	   0.8683881559	  36.8006000000	  16.8785000000
S	   5.4544000000	  36.4642000000	  18.3717000000
S	   6.7924200000	  34.8489000000	  18.6994000000
