31

Li	  57.2747000000	  48.5810000000	  30.3619000000
O	  58.2916000000	  49.5938000000	  31.6202000000
O	  60.0442018441	  49.6873000000	  32.9594000000
C	  57.9447000000	  50.5246000000	  32.7178000000
C	  59.0903118441	  50.3751000000	  33.6603000000
C	  59.6492918441	  49.6798000000	  31.6243000000
H	  57.9664000000	  51.5728000000	  32.4285000000
H	  57.0354000000	  50.2641000000	  33.1607000000
H	  59.4220418441	  51.3840000000	  33.9345000000
H	  58.7865000000	  49.8116000000	  34.5635000000
H	  60.0133318441	  48.8400000000	  31.0701000000
H	  60.0296918441	  50.4901000000	  31.0385000000
O	  57.8863000000	  44.7491000000	  29.7045000000
O	  57.4640000000	  46.7881000000	  30.6024000000
C	  56.8707000000	  44.5694000000	  30.7056000000
C	  56.8583000000	  45.8829000000	  31.5212000000
C	  58.3917000000	  46.0628000000	  29.8786000000
H	  55.8958000000	  44.5047000000	  30.2120000000
H	  57.0555000000	  43.7618000000	  31.3354000000
H	  55.8760000000	  46.1583000000	  31.8761000000
H	  57.3869000000	  45.6901000000	  32.4867000000
H	  59.4083218441	  46.0739000000	  30.2742000000
H	  58.3121000000	  46.4529000000	  28.8717000000
S	  55.3586000000	  49.0105000000	  29.6597000000
S	  56.4537000000	  49.8950000000	  28.1616000000
S	  57.3753000000	  48.4869000000	  27.1376000000
S	  60.8666818441	  47.9884000000	  24.0731000000
S	  62.7178318441	  47.1607000000	  24.2590000000
S	  62.7601918441	  45.6356000000	  25.7131000000
S	  60.3688918441	  49.4777000000	  25.4496000000
S	  59.4473318441	  48.7059000000	  27.2023000000
