32

Li	  38.6939000000	  29.8175000000	  27.9153000000
N	  35.6103000000	  31.6747000000	  27.9912000000
S	  35.8655000000	  31.1508000000	  26.5341000000
O	  37.1976000000	  30.5627000000	  26.4140000000
O	  34.7342000000	  30.4444000000	  25.9343000000
C	  35.9329000000	  32.7785000000	  25.5247000000
F	  34.9468000000	  33.5951000000	  25.8251000000
F	  36.0334000000	  32.6354000000	  24.2139000000
F	  37.0464000000	  33.4081000000	  25.8415000000
S	  34.4501000000	  31.3710000000	  29.0200000000
O	  34.9566000000	  31.6370000000	  30.3216000000
O	  33.6738000000	  30.1631000000	  28.8295000000
C	  33.3048000000	  32.6836000000	  28.5571000000
F	  32.7103000000	  32.4329000000	  27.3752000000
F	  32.2799000000	  32.7151000000	  29.4074000000
F	  33.8381000000	  33.9315000000	  28.5296000000
S	  38.2677000000	  37.9358000000	  31.5295000000
S	  39.6847000000	  36.3431000000	  31.6423000000
S	  41.4230000000	  36.7936000000	  30.4735000000
S	  41.5485000000	  32.1654000000	  29.5924000000
S	  39.9960000000	  31.8394000000	  28.2832000000
S	  40.4933000000	  30.2383000000	  26.9173000000
S	  42.6814000000	  33.8800000000	  29.1183000000
S	  42.8220000000	  35.3000000000	  30.5742000000
S	  38.2900000000	  28.0650000000	  29.1840000000
S	  37.8466000000	  29.7658000000	  30.3167000000
S	  38.9606000000	  29.4745000000	  32.1289000000
S	  36.2382000000	  28.8445000000	  36.7245000000
S	  34.3431000000	  27.9570000000	  36.5989000000
S	  32.8873000000	  29.3599000000	  36.2381000000
S	  37.5076000000	  28.1928000000	  35.1304000000
S	  37.8166000000	  29.8648000000	  33.8408000000
