42

Li	  22.6689000000	  54.4372000000	  13.2777000000
O	  21.3759000000	  53.8320000000	  14.4030000000
O	  19.4478000000	  52.7303000000	  14.4596000000
C	  20.3656000000	  54.8042000000	  14.3873000000
C	  19.0445000000	  54.0892000000	  14.5842000000
C	  20.7618000000	  52.6793000000	  14.9138000000
H	  20.5510000000	  55.6797000000	  14.9901000000
H	  20.3940000000	  55.1918000000	  13.3499000000
H	  18.7397000000	  54.4593000000	  15.5699000000
H	  18.1676000000	  54.3671000000	  13.8750000000
H	  21.1235000000	  51.7029000000	  14.5583000000
H	  20.7333000000	  52.7142000000	  16.0375000000
F	  24.4923000000	  57.1360000000	  15.5649000000
F	  22.6851000000	  56.5160000000	  16.4974000000
F	  22.8036000000	  56.4089000000	  14.3025000000
F	  22.3541000000	  49.0622000000	  13.0973000000
F	  21.1869000000	  50.7132000000	  12.4917000000
F	  21.9749000000	  49.2461000000	  11.0234000000
O	  24.1293000000	  54.1112000000	  14.4833000000
O	  23.5043000000	  51.6936000000	  13.2271000000
C	  24.9067000000	  52.9322000000	  14.7838000000
C	  24.8003000000	  52.1020000000	  13.4886000000
C	  23.9662000000	  54.8549000000	  15.6867000000
C	  23.5372000000	  50.7440000000	  12.1307000000
C	  23.4752000000	  56.2887000000	  15.4723000000
C	  22.2097000000	  49.9331000000	  12.1074000000
H	  25.9592000000	  53.2215000000	  14.8641000000
H	  24.5185000000	  52.4405000000	  15.6718000000
H	  25.1354000000	  52.6568000000	  12.6533000000
H	  25.4778000000	  51.2789000000	  13.5231000000
H	  24.9222000000	  54.8363000000	  16.2407000000
H	  23.2718000000	  54.2561000000	  16.2909000000
H	  23.5698000000	  51.3633000000	  11.2351000000
H	  24.4121000000	  50.0252000000	  11.9542000000
S	  33.3959000000	  56.1844000000	  10.4456000000
S	  31.6109000000	  56.7522000000	  11.6094000000
S	  29.8124000000	  57.2097000000	  10.6900000000
S	  25.1548000000	  57.0813000000	  11.9402000000
S	  24.5316000000	  55.3837000000	  10.8725000000
S	  22.5628000000	  54.7668000000	  11.2427000000
S	  27.0923000000	  56.7292000000	  12.7827000000
S	  28.4842000000	  58.1375000000	  12.0050000000
