39

Li	  13.5595000000	  58.5534000000	  24.8488000000
F	  16.5174000000	  54.1054000000	  24.7188000000
F	  16.7093000000	  55.0917000000	  26.4729000000
F	  17.6587000000	  55.9633000000	  24.7823000000
F	  12.2174000000	  61.0372291775	  24.8122000000
F	  12.5494000000	  62.9246891775	  25.7715000000
F	  13.1773000000	  62.6075791775	  23.7539000000
O	  15.1391000000	  57.4313000000	  25.4113000000
O	  14.6849000000	  60.2203591775	  25.0648000000
C	  16.2912000000	  58.3041000000	  25.1457000000
C	  15.8355000000	  59.6307591775	  25.7614000000
C	  15.2719000000	  56.1053000000	  24.9083000000
C	  14.4042000000	  61.4969491775	  25.5279000000
C	  16.5721000000	  55.3371000000	  25.2115000000
C	  13.0859000000	  62.0428391775	  24.9605000000
H	  17.1427000000	  57.9154000000	  25.7549000000
H	  16.4696000000	  58.3321000000	  24.1087000000
H	  15.4909000000	  59.5252391775	  26.8732000000
H	  16.6388000000	  60.2789391775	  25.6257000000
H	  15.2289000000	  56.0608000000	  23.8549000000
H	  14.4617000000	  55.4726000000	  25.2517000000
H	  14.2510000000	  61.4689691775	  26.5787000000
H	  15.2289000000	  62.2167491775	  25.3091000000
S	  12.2782000000	  57.7662000000	  26.3893000000
S	  12.8674000000	  57.1980000000	  28.3627000000
S	  11.4445000000	  56.0297000000	  29.4659000000
S	  11.9229000000	  57.5546000000	  34.0823000000
S	  10.9675000000	  58.8617000000	  35.4922000000
S	  10.7253000000	  58.0956000000	  37.5127000000
S	  10.5092000000	  56.2845000000	  32.9350000000
S	  10.4731000000	  57.1470000000	  31.0097000000
S	  23.6097000000	  61.5084891775	  17.8558000000
S	  21.6054000000	  60.5809591775	  17.7733000000
S	  20.5224000000	  60.7476791775	  19.5070000000
S	  16.4335000000	  58.9806391775	  21.3147000000
S	  14.6793000000	  57.8659000000	  21.3932000000
S	  13.3005000000	  58.5163000000	  22.7914000000
S	  17.6535000000	  58.7144000000	  19.5972000000
S	  19.7511000000	  58.8221000000	  19.9193000000
