35

Li	  56.3944000000	  20.6729000000	   3.9663100000
O	  57.9442000000	  20.0402000000	   3.2679000000
O	  60.0541918441	  20.0613000000	   2.8957100000
C	  58.5532000000	  19.2803000000	   4.2763100000
C	  59.9034018441	  18.9050000000	   3.6527300000
C	  58.8401000000	  20.5563000000	   2.4225900000
H	  58.6095000000	  19.9790000000	   5.1384000000
H	  57.9537000000	  18.3951000000	   4.5362900000
H	  60.6282018441	  18.6292000000	   4.4285700000
H	  59.6369718441	  18.0512000000	   3.0402000000
H	  58.7359000000	  20.1249000000	   1.4179000000
H	  58.7249000000	  21.6174000000	   2.3794000000
N	  53.5563000000	  21.0718000000	   0.4647612146
S	  54.9957000000	  21.2334000000	   0.9876612146
O	  55.0888000000	  21.3995000000	   2.4022100000
O	  56.0992000000	  20.5479000000	   0.3122612146
C	  55.3569000000	  23.0121000000	   0.4277612146
F	  56.6409000000	  23.2529000000	   0.5306612146
F	  54.7172000000	  23.8761000000	   1.2100200000
F	  55.0063000000	  23.2651000000	  -0.8017387854
S	  52.7226000000	  19.7783000000	   0.5208612146
O	  51.4657000000	  19.9630000000	   1.2059100000
O	  53.4174000000	  18.5677000000	   0.8459612146
C	  52.1118000000	  19.5071000000	  -1.1865387854
F	  53.0641000000	  19.2102000000	  -2.0848387854
F	  51.4054000000	  18.4531000000	  -1.1710387854
F	  51.3356000000	  20.4587000000	  -1.5928387854
S	  55.1698000000	  20.9688000000	   5.5337800000
S	  55.2371000000	  18.8961000000	   5.4596200000
S	  54.1529000000	  17.8395000000	   6.8932500000
S	  49.4067000000	  18.4463000000	   7.8119400000
S	  47.4395000000	  17.7970000000	   7.5196600000
S	  46.2557000000	  17.3499000000	   9.1555200000
S	  50.8979000000	  16.9387000000	   7.7694700000
S	  52.3354000000	  17.1105000000	   6.2598300000
