53

Li	  22.3905000000	  45.2111000000	  35.6007000000
O	  25.8649000000	  47.2140000000	  35.0231000000
O	  23.7670000000	  46.5810000000	  35.2324000000
C	  25.3086000000	  47.9637000000	  36.0891000000
C	  23.8730000000	  47.5685000000	  36.1996000000
C	  24.7734000000	  46.8511000000	  34.2768000000
H	  25.7928000000	  47.5485000000	  37.0135000000
H	  25.4306000000	  49.0867000000	  35.9702000000
H	  23.5508000000	  47.2525000000	  37.1930000000
H	  23.3351000000	  48.4639000000	  35.9544000000
H	  24.4848000000	  47.6507000000	  33.6215000000
H	  24.9887000000	  45.9254000000	  33.7138000000
O	  21.6123000000	  45.1894000000	  33.6839000000
O	  21.1233000000	  44.9457000000	  31.4309000000
C	  20.4656000000	  46.0169000000	  33.3640000000
C	  19.9601000000	  45.3617000000	  32.0313000000
C	  21.9257000000	  44.4821000000	  32.5235000000
H	  19.6967000000	  45.9453000000	  34.1696000000
H	  20.7742000000	  47.0001000000	  33.1750000000
H	  19.3369000000	  44.4718000000	  32.3105000000
H	  19.3258000000	  46.0550000000	  31.4466000000
H	  22.9256000000	  44.6554000000	  32.2675000000
H	  21.7417000000	  43.3608000000	  32.6303000000
N	  25.2886000000	  42.7980000000	  36.4663000000
S	  24.9348000000	  43.9269000000	  37.5501000000
O	  26.0698000000	  44.5115000000	  38.1767000000
O	  23.8249000000	  44.8092000000	  37.2067000000
C	  24.2431000000	  42.8222000000	  38.8004000000
F	  23.6234000000	  43.3682000000	  39.8089000000
F	  25.1248000000	  42.0778000000	  39.3155000000
F	  23.3563000000	  41.9854000000	  38.2605000000
S	  24.7633000000	  42.6709000000	  34.9839000000
O	  25.7521000000	  42.4488000000	  33.9239000000
O	  23.6978000000	  43.6204000000	  34.6454000000
C	  23.9217000000	  41.0055000000	  34.9101000000
F	  22.8974000000	  41.0457000000	  35.7261000000
F	  23.4904000000	  40.7073000000	  33.6951000000
F	  24.6910000000	  40.0211000000	  35.3082000000
N	  19.2688000000	  44.8633000000	  37.5849000000
S	  19.5458000000	  46.3784000000	  37.2280000000
O	  20.7249000000	  46.6650000000	  36.3861000000
O	  18.3705000000	  47.1569000000	  36.9605000000
C	  20.1295000000	  46.9530000000	  38.8538000000
F	  19.3722000000	  46.6144000000	  39.8795000000
F	  20.3104000000	  48.3097000000	  38.8895000000
F	  21.3160000000	  46.3837000000	  39.1627000000
S	  19.9395000000	  43.5446000000	  37.0318000000
O	  21.3378000000	  43.7695000000	  36.8229000000
O	  19.1330000000	  42.8657000000	  36.0521000000
C	  19.9013000000	  42.4050000000	  38.4790000000
F	  20.2656000000	  43.1116000000	  39.5908000000
F	  18.6496000000	  41.9053000000	  38.7655000000
F	  20.7108000000	  41.3167000000	  38.3386000000
