49

Li	  34.2186000000	  40.1780000000	  54.9014000000
O	  33.8991000000	  40.0376000000	  51.1406000000
O	  34.5252000000	  39.3161000000	  53.0727000000
C	  35.2810000000	  40.3808000000	  51.2382000000
C	  35.8142000000	  39.5207000000	  52.3791000000
C	  33.6843000000	  39.0286000000	  52.0435000000
H	  35.6815000000	  40.1742000000	  50.2737000000
H	  35.2872000000	  41.4426000000	  51.4952000000
H	  36.2328000000	  38.5699000000	  52.1123000000
H	  36.4255000000	  40.1039000000	  52.9860000000
H	  32.5847000000	  39.0106000000	  52.2839000000
H	  33.8382000000	  38.1960000000	  51.4318000000
F	  31.1345000000	  36.6984000000	  56.0459000000
F	  32.8484000000	  35.5550000000	  55.7243000000
F	  32.3694000000	  37.1978000000	  54.4355000000
F	  34.6921000000	  42.9510000000	  54.6117000000
F	  33.5670000000	  44.4606000000	  53.4722000000
F	  33.2661000000	  44.2361000000	  55.6222000000
O	  33.3466000000	  39.1076000000	  56.1383000000
O	  32.6485000000	  41.2329000000	  54.7061000000
C	  32.2859000000	  39.8479000000	  56.6590000000
C	  32.3799000000	  41.3238000000	  56.1050000000
C	  33.2129000000	  37.7319000000	  56.5428000000
C	  32.4351000000	  42.5098000000	  54.0867000000
C	  32.3860000000	  36.8064000000	  55.6823000000
C	  33.4953000000	  43.5816000000	  54.4741000000
H	  31.3228000000	  39.4132000000	  56.3888000000
H	  32.1289000000	  39.9567000000	  57.7577000000
H	  31.3780000000	  41.7590000000	  56.3132000000
H	  33.1776000000	  41.8299000000	  56.6093000000
H	  32.9411000000	  37.6461000000	  57.5818000000
H	  34.2439000000	  37.4026000000	  56.4127000000
H	  32.4405000000	  42.3905000000	  53.0017000000
H	  31.4952000000	  42.9635000000	  54.3651000000
N	  37.5975000000	  39.3280000000	  56.8484000000
S	  36.9080000000	  40.7402000000	  56.7000000000
O	  37.6990000000	  41.9716000000	  56.8875000000
O	  35.8853000000	  40.6806000000	  55.6581000000
C	  35.8592000000	  40.6535000000	  58.2343000000
F	  35.1857000000	  41.7760000000	  58.4073000000
F	  36.5601000000	  40.3674000000	  59.3074387854
F	  34.9924000000	  39.7173000000	  58.0652000000
S	  39.1789000000	  39.2190000000	  57.0626000000
O	  39.9708000000	  40.3652000000	  57.4341000000
O	  39.8058000000	  38.3074000000	  56.1524000000
C	  39.4339000000	  38.2597000000	  58.5463000000
F	  38.8500000000	  37.0916000000	  58.5120000000
F	  40.7493000000	  38.0552000000	  58.6953000000
F	  38.9815000000	  38.9896000000	  59.6165187854
