28

Li	  32.1588000000	  28.0015000000	  33.0822000000
O	  31.9159000000	  29.7767000000	  33.2107000000
O	  32.9552000000	  31.7277000000	  33.8069000000
C	  31.6840000000	  30.6040000000	  32.1000000000
C	  32.5660000000	  31.8869000000	  32.4724000000
C	  32.2576000000	  30.6473000000	  34.3174000000
H	  31.9510000000	  30.0883000000	  31.2222000000
H	  30.6233000000	  30.7485000000	  32.0210000000
H	  33.5068000000	  31.9040000000	  31.9065000000
H	  31.9553000000	  32.7438000000	  32.4121000000
H	  31.3915000000	  31.2018000000	  34.7081000000
H	  32.7739000000	  30.1344000000	  35.1405000000
S	  24.3528000000	  33.3922000000	  35.3332000000
S	  26.2675000000	  34.1717000000	  35.1506000000
S	  27.8584000000	  33.0279000000	  35.9828000000
S	  29.2097000000	  28.5770000000	  34.4332000000
S	  29.0872000000	  27.0054000000	  33.0200000000
S	  30.8267000000	  27.0594000000	  31.6765000000
S	  27.9955000000	  30.2356000000	  33.8349000000
S	  28.8151000000	  32.1445000000	  34.3584000000
S	  33.9556000000	  28.6393000000	  24.8207000000
S	  35.8916000000	  28.4172000000	  25.5553000000
S	  36.1946000000	  29.4205000000	  27.3541000000
S	  34.5146000000	  28.6221000000	  32.0588000000
S	  34.5780000000	  26.9795000000	  33.3231000000
S	  32.8638000000	  26.8353000000	  34.6936000000
S	  34.1595000000	  28.3494000000	  30.0486000000
S	  36.0026000000	  28.1317000000	  29.0309000000
