24

Li	  14.2763000000	  21.5729000000	  29.5708000000
N	  10.6750000000	  22.1698000000	  31.2524000000
S	  11.8820000000	  21.3912000000	  31.8617000000
O	  12.9671000000	  21.1811000000	  30.9481000000
O	  12.1551000000	  21.5782000000	  33.2583000000
C	  11.0330000000	  19.7328000000	  31.8164000000
F	  11.7955000000	  18.9233000000	  32.4790000000
F	  10.8855000000	  19.2488000000	  30.5797000000
F	   9.7936000000	  19.7343000000	  32.3434000000
S	  10.2829000000	  23.6167000000	  31.6736000000
O	  10.3180000000	  24.6126000000	  30.5920000000
O	  10.6921000000	  24.0310000000	  32.9926000000
C	   8.4520000000	  23.2826000000	  31.7964000000
F	   8.1748000000	  22.5060000000	  32.7641000000
F	   7.7138200000	  24.4144000000	  31.9982000000
F	   8.0071800000	  22.7516000000	  30.6428000000
S	  15.7419000000	  20.0388000000	  29.1002000000
S	  15.9344000000	  19.4841000000	  31.1669000000
S	  17.2148000000	  20.9063000000	  32.1102000000
S	  14.3855000000	  24.1932000000	  30.8027000000
S	  15.0097000000	  23.9603000000	  28.8043000000
S	  13.7654000000	  22.5555000000	  27.7615000000
S	  15.9621000000	  24.1053000000	  32.1753000000
S	  16.0118000000	  22.2388000000	  33.1648000000
