57

Li	   9.4954600000	  12.7104000000	  44.1691000000
O	  11.4062000000	  12.7147000000	  43.6201000000
O	  12.9519000000	  13.0191000000	  42.1079000000
C	  12.1152000000	  11.5092000000	  43.5250000000
C	  13.0457000000	  11.6434000000	  42.3382000000
C	  12.3041000000	  13.6547000000	  43.1428000000
H	  12.6285000000	  11.4241000000	  44.4778000000
H	  11.4695000000	  10.6112000000	  43.4497000000
H	  14.0801000000	  11.2328000000	  42.3493000000
H	  12.5738000000	  11.0634000000	  41.5773000000
H	  11.8246000000	  14.5387000000	  42.7312000000
H	  13.0690000000	  13.8136000000	  43.8895000000
O	   7.2213400000	  10.8529000000	  46.7695000000
O	   8.8315600000	  11.4087000000	  45.3548000000
C	   8.1306900000	   9.7095400000	  46.7913000000
C	   9.0554900000	   9.9745400000	  45.5814000000
C	   7.5238200000	  11.5471000000	  45.6779000000
H	   8.8028500000	   9.6106500000	  47.6550000000
H	   7.5187300000	   8.8429300000	  46.7610000000
H	  10.0566000000	   9.8896600000	  45.7761000000
H	   8.6955000000	   9.3006900000	  44.7408000000
H	   6.8061700000	  11.3406000000	  44.8779000000
H	   7.3462400000	  12.6087000000	  45.8832000000
O	  11.1090000000	  15.4901000000	  47.4641000000
O	  10.3742000000	  14.0577000000	  45.9662000000
C	  10.8851000000	  14.3338000000	  48.2412000000
C	  10.4588000000	  13.3506000000	  47.1582000000
C	  11.1972000000	  15.0710000000	  46.1429000000
H	  11.6346000000	  14.0028000000	  48.8987000000
H	   9.9275000000	  14.4821000000	  48.7422000000
H	  11.1732000000	  12.5261000000	  47.2157000000
H	   9.4548000000	  12.9144000000	  47.3407000000
H	  11.0519000000	  15.8435000000	  45.4477000000
H	  12.2449000000	  14.6777000000	  45.9650000000
N	   7.6624600000	  16.4938000000	  45.2896000000
S	   8.1760200000	  15.7013000000	  44.0684000000
O	   9.2393400000	  16.4010000000	  43.3933000000
O	   8.2706800000	  14.2536000000	  44.2906000000
C	   6.6461000000	  15.8765000000	  43.0703000000
F	   6.7186600000	  15.1616000000	  41.9872000000
F	   6.4393100000	  17.1300000000	  42.7047000000
F	   5.5912600000	  15.4551000000	  43.7399000000
S	   7.4851300000	  16.1589000000	  46.8041000000
O	   8.3497700000	  16.9421000000	  47.5983000000
O	   7.2343600000	  14.7865000000	  47.1606000000
C	   5.9249300000	  17.0166000000	  47.1096000000
F	   4.9140900000	  16.4031000000	  46.4973000000
F	   5.5563900000	  17.0194000000	  48.3781000000
F	   5.8995300000	  18.2883000000	  46.6622000000
S	  11.4239000000	  19.6247000000	  36.6082000000
S	  10.9362000000	  18.1254000000	  35.2754000000
S	  10.1033000000	  16.5164000000	  36.3743000000
S	  11.0825000000	  13.0723000000	  39.9077000000
S	   9.5818900000	  13.6259000000	  41.2099000000
S	   8.9097900000	  11.8400000000	  42.1514000000
S	  10.4476000000	  13.3347000000	  37.8888000000
S	  11.4156000000	  14.9761000000	  36.9319000000
