35

Li	  16.2467000000	  21.8965000000	  25.8691000000
O	  16.9144000000	  21.2426000000	  24.0085000000
O	  17.5099000000	  20.9986000000	  21.8026000000
C	  18.1437000000	  20.4931000000	  23.9698000000
C	  18.6870000000	  20.6693000000	  22.5741000000
C	  16.4792000000	  20.9974000000	  22.7338000000
H	  18.8722000000	  20.7046000000	  24.7674000000
H	  17.8319000000	  19.4522000000	  24.2261000000
H	  19.4609000000	  21.4117000000	  22.5518000000
H	  19.0522000000	  19.6841000000	  22.4616000000
H	  15.9320000000	  20.0609000000	  22.6728000000
H	  15.7963000000	  21.8665000000	  22.5192000000
N	  15.5613000000	  24.7980000000	  24.0577000000
S	  14.3332000000	  23.8303000000	  24.3746000000
O	  13.5434000000	  23.4440000000	  23.2531000000
O	  14.6647000000	  22.8489000000	  25.3418000000
C	  13.2481000000	  24.9853000000	  25.2722000000
F	  12.0783000000	  24.4195000000	  25.5245000000
F	  12.9531000000	  26.1525000000	  24.6410000000
F	  13.7291000000	  25.3500000000	  26.4534000000
S	  16.9234000000	  24.8031000000	  24.7623000000
O	  17.2757000000	  23.5850000000	  25.3755000000
O	  17.2348000000	  26.0682000000	  25.3557000000
C	  17.9715000000	  24.8521000000	  23.2934000000
F	  19.2725000000	  24.8495000000	  23.6030000000
F	  17.7594000000	  23.8443000000	  22.5112000000
F	  17.8891000000	  25.9007000000	  22.5196000000
S	  18.5286000000	  17.1351000000	  28.2989000000
S	  19.1138000000	  17.7850000000	  30.2500000000
S	  19.1281000000	  19.8189000000	  30.6906000000
S	  15.1931000000	  21.7453000000	  30.1430000000
S	  16.1395000000	  22.0500000000	  28.3017000000
S	  16.6658000000	  20.2688000000	  27.2676000000
S	  16.6865000000	  22.1830000000	  31.5839000000
S	  17.6648000000	  20.3398000000	  32.0284000000
