39

Li	  16.9734000000	  22.6110000000	  37.9407000000
F	  19.5814000000	  25.3102000000	  41.1504000000
F	  17.7373000000	  24.2931000000	  40.6902000000
F	  17.8729000000	  26.2793000000	  40.1582000000
F	  14.8170000000	  21.8522000000	  35.4214000000
F	  16.0638000000	  22.4915000000	  33.7446000000
F	  15.2528000000	  20.4698000000	  33.7720000000
O	  18.6674000000	  23.4707000000	  38.3971000000
O	  17.4810000000	  21.8674000000	  36.3398000000
C	  19.4855000000	  23.0023000000	  37.3010000000
C	  18.8531000000	  21.7139000000	  36.7913000000
C	  19.1186000000	  24.6871000000	  38.8855000000
C	  16.9611000000	  20.9157000000	  35.2990000000
C	  18.5753000000	  25.1796000000	  40.2340000000
C	  15.7674000000	  21.4463000000	  34.4991000000
H	  19.5973000000	  23.6985000000	  36.4700000000
H	  20.4940000000	  22.7524000000	  37.6510000000
H	  19.5723000000	  21.3972000000	  36.0011000000
H	  18.9003000000	  20.9389000000	  37.5264000000
H	  19.0332000000	  25.4063000000	  38.1263000000
H	  20.1667000000	  24.6312000000	  38.8494000000
H	  17.7265000000	  20.5830000000	  34.6411000000
H	  16.6284000000	  20.0866000000	  35.8740000000
S	  15.3002000000	  23.8333000000	  38.2187000000
S	  15.0969000000	  24.9721000000	  36.4490000000
S	  16.8949000000	  25.5882000000	  35.6444000000
S	  19.3143000000	  29.0757000000	  32.9955000000
S	  20.0505000000	  28.5296000000	  31.1263000000
S	  21.3106000000	  27.0051000000	  31.3640000000
S	  17.4794000000	  28.2976000000	  33.5972000000
S	  17.3845000000	  27.6575000000	  35.5663000000
S	  16.6114000000	  20.7621000000	  39.3519000000
S	  15.5570000000	  19.3581000000	  38.2063000000
S	  13.5513000000	  19.6340000000	  38.7306000000
S	   9.6360900000	  17.5003000000	  40.5758000000
S	   9.0219900000	  18.0628000000	  42.5218000000
S	   8.2205000000	  16.5413000000	  43.6937000000
S	  11.6436000000	  17.0423000000	  40.4296000000
S	  12.4227000000	  17.7504000000	  38.5789000000
