39

Li	  12.6906000000	  20.0796000000	  15.2933000000
O	  10.7716000000	  20.6985000000	  15.6860000000
O	   8.5056800000	  20.3552000000	  15.4180000000
C	   9.9785900000	  21.8849000000	  15.8687000000
C	   8.6878800000	  21.4064000000	  16.3420000000
C	   9.8308100000	  19.8013000000	  15.2478000000
H	  10.5190000000	  22.6168000000	  16.5073000000
H	   9.8674800000	  22.3798000000	  14.8740000000
H	   8.8151800000	  21.0493000000	  17.2896000000
H	   7.8087000000	  22.1165000000	  16.2430000000
H	  10.0519000000	  19.5072000000	  14.2176000000
H	   9.8390100000	  18.8759000000	  15.8102000000
O	  13.4854000000	  21.8559000000	  15.4729000000
O	  14.4623000000	  23.4839000000	  14.3459000000
C	  14.8892000000	  21.6989000000	  15.7167000000
C	  15.4494000000	  22.4817000000	  14.5469000000
C	  13.3883000000	  23.2186000000	  15.1335000000
H	  15.0951000000	  22.1656000000	  16.6703000000
H	  15.2948000000	  20.6775000000	  15.8040000000
H	  16.4494000000	  22.9021000000	  14.7190000000
H	  15.5349000000	  21.9999000000	  13.5497000000
H	  12.4095000000	  23.4087000000	  14.6169000000
H	  13.5118000000	  23.8535000000	  15.9889000000
S	  13.1136000000	  17.9702000000	  15.9638000000
S	  13.2118000000	  19.3104000000	  17.5616000000
S	  14.8042000000	  19.0661000000	  18.9108000000
S	  17.9514000000	  19.7199000000	  15.3500000000
S	  18.7258000000	  17.9844000000	  14.3875000000
S	  17.1638000000	  16.8551000000	  13.4843000000
S	  18.0528000000	  19.3134000000	  17.4595000000
S	  16.5330000000	  20.2510000000	  18.4841000000
S	  12.5543000000	  19.7252000000	  13.1323000000
S	  12.7711000000	  21.2625000000	  11.7413000000
S	  11.2884000000	  22.8216000000	  11.9079000000
S	  11.9447000000	  23.4163000000	   7.1633600000
S	  13.9120000000	  22.5500000000	   7.3705600000
S	  14.2609000000	  20.7690000000	   6.3165500000
S	  11.2088000000	  24.3678000000	   8.9146300000
S	  10.2954000000	  22.9473000000	  10.1344000000
