38

Li	  26.2617000000	  29.7663000000	  23.3650000000
F	  28.8825000000	  26.4946000000	  20.9509000000
F	  26.8957000000	  27.4956000000	  20.7122000000
F	  26.9742000000	  25.3698000000	  21.1626000000
F	  21.2639000000	  31.3514000000	  23.5932000000
F	  22.4628000000	  30.2740000000	  25.0336000000
F	  23.3167000000	  31.9907000000	  24.1349000000
O	  26.5496000000	  27.8957000000	  23.3587000000
O	  24.3674000000	  29.5431000000	  23.1542000000
C	  25.2006000000	  27.2627000000	  23.4048000000
C	  24.2119000000	  28.3391000000	  23.9317000000
C	  27.5270000000	  26.9430000000	  22.8858000000
C	  23.1652000000	  30.2101000000	  22.8037000000
C	  27.5494000000	  26.5529000000	  21.3908000000
C	  22.5047000000	  31.0090000000	  23.8938000000
H	  24.9590000000	  26.9083000000	  22.3735000000
H	  25.1863000000	  26.4203000000	  24.0716000000
H	  23.1597000000	  27.9513000000	  23.9508000000
H	  24.3253000000	  28.6725000000	  24.9885000000
H	  27.4211000000	  25.9748000000	  23.4262000000
H	  28.5644000000	  27.2041000000	  23.1498000000
H	  23.4431000000	  30.8951000000	  21.9625000000
H	  22.5000000000	  29.5275000000	  22.2787000000
N	  29.6728000000	  29.4171000000	  22.2761000000
S	  28.8240000000	  30.7422000000	  22.1016000000
O	  27.3855000000	  30.5023000000	  22.2411000000
O	  29.3567000000	  31.9131000000	  22.7695000000
C	  29.0828000000	  31.0741000000	  20.2797000000
F	  28.6372000000	  30.1241000000	  19.5744000000
F	  30.3969000000	  31.3181000000	  19.9349000000
F	  28.4691000000	  32.1494000000	  19.8307000000
S	  30.8586000000	  29.1231000000	  23.2776000000
O	  30.6819000000	  27.8553000000	  23.8686000000
O	  31.2103000000	  30.2572000000	  24.0632000000
C	  32.2395000000	  28.8982000000	  22.0367000000
F	  32.0727000000	  27.8994000000	  21.1885000000
F	  32.4034000000	  30.0927000000	  21.3613000000
F	  33.3865000000	  28.7084000000	  22.6665000000
