43

Li	  11.0815000000	  18.6802000000	  12.0468000000
O	  11.2210000000	  16.5803000000	  11.9901000000
O	  11.6289000000	  14.2528000000	  11.8987000000
C	  12.3669000000	  16.1752000000	  12.6912000000
C	  12.8717000000	  14.9252000000	  12.0275000000
C	  10.6905000000	  15.2889000000	  11.6020000000
H	  13.1077000000	  16.9437000000	  12.7964000000
H	  11.9232000000	  15.9973000000	  13.7243000000
H	  13.3058000000	  15.1097000000	  10.9988000000
H	  13.5836000000	  14.3609000000	  12.6211000000
H	   9.7402300000	  15.1382000000	  12.1690000000
H	  10.3934000000	  15.2658000000	  10.5235000000
N	  14.6398000000	  20.1593000000	  13.9776000000
S	  13.8329000000	  19.4938000000	  15.1164000000
O	  12.9897000000	  20.4423000000	  15.7866000000
O	  13.2669000000	  18.1802000000	  14.8274000000
C	  15.2316000000	  19.1938000000	  16.3110000000
F	  14.8133000000	  18.3446000000	  17.2515000000
F	  15.6638000000	  20.3284000000	  16.8379000000
F	  16.2700000000	  18.6568000000	  15.7458000000
S	  14.0758000000	  20.1361000000	  12.4660000000
O	  14.4628000000	  21.3621000000	  11.8410000000
O	  12.7910000000	  19.5243000000	  12.2824000000
C	  15.1843000000	  18.9420000000	  11.6691000000
F	  15.5482000000	  17.9392000000	  12.3234000000
F	  14.7327000000	  18.6091000000	  10.4693000000
F	  16.3068000000	  19.6509000000	  11.4539000000
S	   9.9875000000	  19.3611000000	  13.7146000000
S	   8.6497200000	  17.7530000000	  13.3246000000
S	   7.1475900000	  18.1614000000	  11.8729000000
S	   7.5795900000	  14.3157000000	   9.2730600000
S	   7.0086000000	  13.1735000000	  11.0031000000
S	   8.5631000000	  12.1014000000	  11.8575000000
S	   6.6559000000	  16.2188000000	   9.0172000000
S	   7.7908500000	  17.6641000000	   9.9197400000
S	  11.1220000000	  19.1411000000	   9.8256000000
S	  10.4310000000	  21.0250000000	  10.6054000000
S	  11.6565000000	  22.5424000000	  10.0331000000
S	   9.9607300000	  26.6232000000	   7.9919900000
S	  10.1329000000	  26.0723000000	   6.0085000000
S	  12.0950000000	  25.1446000000	   5.7674800000
S	   9.3773000000	  25.1088000000	   9.2908600000
S	  10.9319000000	  24.4089000000	  10.5602000000
