35

Li	   5.4919100000	  10.6704000000	  54.5146000000
O	   7.0189400000	  11.9379000000	  54.3150000000
O	   8.8987300000	  12.8615000000	  53.4531000000
C	   7.8355200000	  12.1740000000	  55.4103000000
C	   9.1749900000	  12.7156000000	  54.8202000000
C	   7.5401600000	  12.8220000000	  53.3145000000
H	   7.3925100000	  12.8335000000	  56.1177000000
H	   8.0810300000	  11.1712000000	  55.8610000000
H	   9.3524600000	  13.6760000000	  55.3493000000
H	  10.0854000000	  12.1280000000	  54.8616000000
H	   7.1474900000	  12.6475000000	  52.2828000000
H	   7.3089800000	  13.9000000000	  53.5609000000
N	   5.3024800000	   8.0139700000	  58.2676000000
S	   6.3133200000	   9.1774200000	  57.8203000000
O	   7.7305600000	   8.9174100000	  58.1597000000
O	   5.9966800000	   9.8997400000	  56.5898000000
C	   5.8286500000	  10.3511000000	  59.1253387854
F	   6.0931600000	   9.8478000000	  60.3090087854
F	   4.5642300000	  10.6828000000	  59.1997387854
F	   6.4686500000	  11.5433000000	  59.0518987854
S	   4.5363300000	   7.0556100000	  57.2981000000
O	   4.7034300000	   5.6413800000	  57.6637000000
O	   4.5477800000	   7.4315300000	  55.8862000000
C	   2.8218700000	   7.3097400000	  57.8444000000
F	   2.5971200000	   6.5774100000	  58.9093000000
F	   2.5141600000	   8.6055800000	  58.1960000000
F	   1.9192100000	   6.8728100000	  56.9937000000
S	   6.0645500000	   8.8729600000	  53.3209000000
S	   5.7225400000	   8.9974100000	  51.2454000000
S	   6.6642000000	  10.6005000000	  50.4550000000
S	   3.1901700000	  13.1963000000	  52.5675000000
S	   4.0863900000	  12.6724000000	  54.3477000000
S	   3.5394400000	  10.7771000000	  55.1468000000
S	   4.7103600000	  13.4147000000	  51.1908000000
S	   5.1004700000	  11.8586000000	  49.8120000000
