61

Li	  34.7435000000	  30.7785000000	  52.5395000000
O	  31.3664000000	  28.8960000000	  50.5204000000
O	  32.8518000000	  30.4250000000	  51.1037000000
C	  32.3050000000	  29.0132000000	  49.4254000000
C	  32.8468000000	  30.4199000000	  49.6476000000
C	  31.8278000000	  29.6478000000	  51.5598000000
H	  33.0799000000	  28.2736000000	  49.6649000000
H	  31.8828000000	  28.8113000000	  48.4643000000
H	  33.9124000000	  30.6046000000	  49.3996000000
H	  32.1491000000	  31.1758000000	  49.3385000000
H	  31.0837000000	  30.3455000000	  51.9491000000
H	  32.2552000000	  28.9991000000	  52.3389000000
O	  35.4264000000	  29.8173000000	  54.0928000000
O	  35.6574000000	  28.5751000000	  55.9485000000
C	  36.5404000000	  30.3588000000	  54.8345000000
C	  36.9277000000	  29.1810000000	  55.6862000000
C	  35.1609000000	  28.5289000000	  54.6466000000
H	  37.2625000000	  30.6095000000	  54.1199000000
H	  36.3191000000	  31.2099000000	  55.4349000000
H	  37.7564000000	  28.6381000000	  55.2276000000
H	  37.2854000000	  29.4293000000	  56.6982000000
H	  34.0873000000	  28.2890000000	  54.5646000000
H	  35.6116000000	  27.6923000000	  54.0371000000
N	  32.6862000000	  32.7277000000	  55.7529000000
S	  33.6856000000	  32.8772000000	  56.9080000000
O	  34.5404000000	  31.7722000000	  57.2160000000
O	  34.2111000000	  34.2121000000	  56.9939000000
C	  32.4678000000	  32.8466000000	  58.3043000000
F	  33.0194000000	  32.8994000000	  59.4934987854
F	  31.7064000000	  31.7325000000	  58.3454000000
F	  31.6206000000	  33.8727000000	  58.2966000000
S	  32.2645000000	  31.4136000000	  55.0290000000
O	  32.2373000000	  30.2555000000	  55.9005000000
O	  32.8935000000	  31.3152000000	  53.6941000000
C	  30.5034000000	  31.7181000000	  54.7609000000
F	  29.8984000000	  32.0391000000	  55.8530000000
F	  30.1884000000	  32.6541000000	  53.8762000000
F	  29.9236000000	  30.6344000000	  54.2940000000
N	  36.0813000000	  27.8245000000	  49.7582000000
S	  35.9811000000	  27.3996000000	  48.2602000000
O	  34.6513000000	  27.5014000000	  47.7358000000
O	  37.1016000000	  27.8005000000	  47.4200000000
C	  36.0189000000	  25.5791000000	  48.4252000000
F	  36.3067000000	  25.0280000000	  47.2991000000
F	  34.7690000000	  25.1062000000	  48.7358000000
F	  36.8566000000	  25.1095000000	  49.2859000000
S	  36.9074000000	  29.0157000000	  50.3096000000
O	  36.2438000000	  29.8180000000	  51.2992000000
O	  37.6932000000	  29.7526000000	  49.3467000000
C	  38.1615000000	  28.0975000000	  51.2615000000
F	  38.8849000000	  27.3032000000	  50.5107000000
F	  38.9859000000	  28.8849000000	  51.9552000000
F	  37.6699000000	  27.3117000000	  52.2321000000
S	  35.5211000000	  32.8255000000	  51.8040000000
S	  37.6384000000	  32.9076000000	  51.3269000000
S	  38.2749000000	  34.8531000000	  50.6805000000
S	  40.1002000000	  34.5599000000	  45.6721000000
S	  38.8091000000	  33.4138000000	  44.4455000000
S	  39.1622000000	  31.2378000000	  44.3484000000
S	  39.1747000000	  35.4835000000	  47.3543000000
S	  39.7151000000	  34.4711000000	  49.0871000000
