38

Li	  26.9000000000	  43.4735000000	  49.6539000000
O	  26.9508000000	  44.7491000000	  48.3188000000
O	  25.0307000000	  44.9907000000	  47.4496000000
C	  27.0588000000	  44.1103000000	  47.0711000000
C	  25.7564000000	  44.3294000000	  46.3931000000
C	  25.9465000000	  45.6748000000	  48.1471000000
H	  27.8662000000	  44.4766000000	  46.4588000000
H	  27.3840000000	  43.0522000000	  47.1145000000
H	  25.9918000000	  44.8973000000	  45.4569000000
H	  25.2312000000	  43.3300000000	  46.1131000000
H	  25.5290000000	  45.9780000000	  49.0939000000
H	  26.2816000000	  46.5636000000	  47.5565000000
O	  25.0177000000	  39.9857000000	  50.1241000000
O	  25.4740000000	  42.1862000000	  49.8535000000
C	  23.9673000000	  40.3594000000	  49.2780000000
C	  24.4165000000	  41.7907000000	  48.9624000000
C	  25.6080000000	  41.1020000000	  50.6933000000
H	  24.0008000000	  39.7228000000	  48.3915000000
H	  22.9846000000	  40.3166000000	  49.6941000000
H	  24.9636000000	  41.8823000000	  48.0169000000
H	  23.6372000000	  42.5253000000	  49.0898000000
H	  25.1007000000	  41.2197000000	  51.5817000000
H	  26.6458000000	  40.9511000000	  50.9330000000
N	  30.1028000000	  44.0471000000	  51.1005000000
S	  28.7669000000	  44.4881000000	  51.8874000000
O	  27.5454000000	  44.3325000000	  51.1105000000
O	  28.5850000000	  44.0543000000	  53.2303000000
C	  29.0574000000	  46.3146000000	  51.9522000000
F	  28.1414000000	  46.9484000000	  52.5779000000
F	  29.0382000000	  46.7944000000	  50.7368000000
F	  30.2594000000	  46.5718000000	  52.4580000000
S	  30.0871000000	  43.1114000000	  49.9061000000
O	  28.8411000000	  42.9115000000	  49.2206000000
O	  30.9743000000	  42.0252000000	  50.0753000000
C	  31.1391000000	  44.1412000000	  48.6760000000
F	  32.4131000000	  44.4525000000	  49.0228000000
F	  31.1107000000	  43.6151000000	  47.4436000000
F	  30.5948000000	  45.3768000000	  48.5300000000
