31

Li	  16.0209000000	  17.8183000000	  26.8558000000
O	  15.8052000000	  18.5760000000	  24.9634000000
O	  14.4258000000	  19.4509000000	  23.4840000000
C	  16.3964000000	  19.7950000000	  24.7105000000
C	  15.2099000000	  20.4835000000	  24.0092000000
C	  15.1154000000	  18.3206000000	  23.8003000000
H	  16.6672000000	  20.3052000000	  25.5806000000
H	  17.3058000000	  19.7660000000	  24.0471000000
H	  14.5423000000	  21.0681000000	  24.6702000000
H	  15.6413000000	  21.0866000000	  23.2295000000
H	  15.6833000000	  18.1178000000	  22.8320000000
H	  14.3147000000	  17.5833000000	  23.9121000000
O	  15.8873000000	  16.0566000000	  26.3125000000
O	  14.6865000000	  14.5953000000	  25.1583000000
C	  16.7818000000	  15.4560000000	  25.3939000000
C	  15.9907000000	  14.1983000000	  25.0581000000
C	  14.6580000000	  15.3505000000	  26.2967000000
H	  16.9838000000	  16.1479000000	  24.5836000000
H	  17.8146000000	  15.2000000000	  25.7298000000
H	  16.2772000000	  13.7431000000	  24.0951000000
H	  16.1517000000	  13.4406000000	  25.7258000000
H	  14.4220000000	  14.7345000000	  27.1659000000
H	  13.9014000000	  16.1986000000	  26.1228000000
S	  18.2949000000	  18.0098000000	  27.2910000000
S	  18.4383000000	  19.5819000000	  28.6666000000
S	  18.2228000000	  21.4044000000	  27.7920000000
S	  13.2833000000	  20.9807000000	  27.9452000000
S	  13.3465000000	  18.9409000000	  27.4907000000
S	  14.9038000000	  17.8517000000	  28.6471000000
S	  14.8983000000	  22.2191000000	  27.1481000000
S	  16.5135000000	  22.5173000000	  28.3946000000
