28

Li	  34.1222000000	  36.3721000000	  32.0451000000
O	  32.0648000000	  38.0511000000	  29.5859000000
O	  33.8821000000	  37.3396000000	  30.4430000000
C	  32.5692000000	  37.2628000000	  28.5372000000
C	  33.8364000000	  36.6315000000	  29.1926000000
C	  33.1213000000	  38.4705000000	  30.2930000000
H	  31.8480000000	  36.5176000000	  28.3039000000
H	  32.6395000000	  37.8407000000	  27.6314000000
H	  33.7621000000	  35.4826000000	  29.3328000000
H	  34.6974000000	  36.7783000000	  28.5692000000
H	  33.6761000000	  39.3234000000	  29.8243000000
H	  32.7341000000	  38.7667000000	  31.3516000000
S	  25.1240000000	  32.1694000000	  36.2212000000
S	  26.6310000000	  32.6440000000	  34.7881000000
S	  26.4664000000	  34.6869000000	  34.2377000000
S	  31.0065000000	  36.2326000000	  33.5064000000
S	  31.8934000000	  35.6037000000	  31.7128000000
S	  33.5370000000	  34.2851000000	  32.0663000000
S	  28.9396000000	  36.8420000000	  33.4404000000
S	  27.8756000000	  36.0114000000	  35.1047000000
S	  35.1723000000	  35.7322000000	  24.3379000000
S	  35.3104000000	  35.0746000000	  26.2873000000
S	  37.2738000000	  35.3319000000	  27.3047000000
S	  37.2916000000	  38.2642000000	  31.0510000000
S	  36.9119000000	  38.1648000000	  33.0908000000
S	  35.0334000000	  37.3635000000	  33.5384000000
S	  38.5565000000	  36.6294000000	  30.4899000000
S	  37.3281000000	  35.1934000000	  29.4444000000
