20

Li	  17.8118000000	  20.3089000000	  47.5284000000
O	  19.8028000000	  23.7249000000	  48.0270000000
O	  18.8560000000	  21.7194000000	  47.5890000000
C	  20.6843000000	  23.0172000000	  47.1953000000
C	  19.9294000000	  21.7807000000	  46.6673000000
C	  18.6028000000	  23.0446000000	  47.9017000000
H	  21.0131000000	  23.6424000000	  46.3828000000
H	  21.4643000000	  22.6988000000	  47.8751000000
H	  19.5735000000	  22.0810000000	  45.6664000000
H	  20.5449000000	  20.8376000000	  46.6386000000
H	  18.2138000000	  23.1881000000	  48.9834000000
H	  17.9143000000	  23.4815000000	  47.1904000000
S	  16.8910000000	  20.1763000000	  45.5849000000
S	  17.8555000000	  18.3968000000	  44.9103000000
S	  20.0675000000	  18.5453000000	  45.0813000000
S	  20.6047000000	  18.4980000000	  50.0048000000
S	  18.9617000000	  19.9105000000	  49.9002000000
S	  17.1961000000	  19.1006000000	  49.0821000000
S	  21.6060000000	  18.6423000000	  48.1245000000
S	  20.7206000000	  17.3694000000	  46.7198000000
