42

Li	  30.4938000000	  18.1199000000	  19.6283000000
O	  31.3232000000	  19.7770000000	  19.6434000000
O	  33.2762000000	  20.9595000000	  20.0630000000
C	  31.2226000000	  21.0606000000	  19.1069000000
C	  32.2201000000	  21.8689000000	  20.0980000000
C	  32.6381000000	  19.6805000000	  20.1912000000
H	  31.6996000000	  21.1142000000	  18.1103000000
H	  30.2109000000	  21.4829000000	  19.0637000000
H	  32.4870000000	  22.8828000000	  19.8828000000
H	  31.8699000000	  22.0847000000	  21.1034000000
H	  32.6705000000	  19.4251000000	  21.2789000000
H	  33.2099000000	  18.9112000000	  19.7845000000
F	  32.0576000000	  17.5019000000	  15.3921000000
F	  32.1369000000	  15.8840000000	  16.7659000000
F	  32.0917000000	  18.0446000000	  17.4636000000
F	  26.5845000000	  21.1740000000	  20.7152000000
F	  25.6244000000	  19.2321000000	  21.3142000000
F	  26.5220000000	  20.6415000000	  22.8437000000
O	  29.6064000000	  17.3492000000	  17.9944000000
O	  28.2985000000	  19.0846000000	  20.0311000000
C	  28.2212000000	  17.6786000000	  17.9335000000
C	  27.8546000000	  17.9259000000	  19.3828000000
C	  30.0079000000	  17.0198000000	  16.6350000000
C	  27.8963000000	  19.3102000000	  21.4217000000
C	  31.5697000000	  17.1087000000	  16.5848000000
C	  26.6018000000	  20.1373000000	  21.5378000000
H	  28.0216000000	  18.5852000000	  17.3515000000
H	  27.7271000000	  16.8284000000	  17.4840000000
H	  26.7663000000	  17.9904000000	  19.1801000000
H	  28.2193000000	  17.0899000000	  19.9632000000
H	  29.5068000000	  17.7023000000	  15.9192000000
H	  29.7195000000	  16.0041000000	  16.3987000000
H	  27.9080000000	  18.4722000000	  22.0872000000
H	  28.7176000000	  19.9403000000	  21.8968000000
S	  30.5139000000	  17.4733000000	  21.7944000000
S	  31.6788000000	  16.2559000000	  20.4969000000
S	  30.8483000000	  14.2771000000	  20.0678000000
S	  27.6467000000	  11.3290000000	  18.0428000000
S	  25.8978000000	  10.1773000000	  18.1918000000
S	  26.0820000000	   8.4853600000	  19.5608000000
S	  27.7864000000	  13.0881000000	  19.1808000000
S	  29.4625000000	  14.1578000000	  18.5105000000
