31

Li	  10.9929000000	  20.7219000000	  41.9590000000
F	  12.5232000000	  24.1523000000	  45.0092000000
F	  10.6487000000	  23.2070000000	  45.4935000000
F	  11.1407000000	  23.5734000000	  43.4523000000
F	  10.4265000000	  16.1000000000	  41.6099000000
F	   9.2335800000	  17.7997000000	  41.0112000000
F	   9.9978100000	  16.4169000000	  39.5902000000
O	  11.7076000000	  20.8747000000	  43.7447000000
O	  11.5638000000	  19.0318000000	  41.5382000000
C	  12.5325000000	  19.6922000000	  43.6388000000
C	  11.9750000000	  18.6119000000	  42.8200000000
C	  12.3014000000	  21.8116000000	  44.6694000000
C	  11.5088000000	  17.9852000000	  40.5336000000
C	  11.6263000000	  23.2215000000	  44.6304000000
C	  10.2873000000	  17.0601000000	  40.7018000000
H	  13.4679000000	  20.0504000000	  43.1187000000
H	  12.8704000000	  19.3506000000	  44.6022000000
H	  12.7494000000	  17.8321000000	  42.6193000000
H	  11.1774000000	  18.0078000000	  43.2290000000
H	  13.2697000000	  21.9052000000	  44.2328000000
H	  12.3637000000	  21.3435000000	  45.6511000000
H	  11.5092000000	  18.6061000000	  39.6684000000
H	  12.4289000000	  17.3096000000	  40.5372000000
S	  11.5327000000	  21.7679000000	  40.0741000000
S	   9.3762900000	  21.9841000000	  40.1026000000
S	   8.6264500000	  21.9145000000	  42.1106000000
S	   7.2845300000	  17.6226000000	  44.3274000000
S	   6.2541700000	  16.7135000000	  46.0313000000
S	   7.5620400000	  16.4590000000	  47.8122000000
S	   6.8867900000	  19.7087000000	  44.2396000000
S	   7.2415100000	  20.4171000000	  42.2569000000
