39

Li	   9.8160600000	  26.7946000000	  58.3055000000
N	  10.2735000000	  27.4364000000	  61.9113787854
S	   8.7628700000	  27.5881000000	  61.5123587854
O	   8.5391200000	  27.7001000000	  60.0614687854
O	   7.8840500000	  26.8081000000	  62.3166287854
C	   8.5101600000	  29.2848000000	  62.1335187854
F	   8.5968000000	  29.2951000000	  63.4163587854
F	   7.3172000000	  29.7215000000	  61.7438387854
F	   9.4479300000	  30.1510000000	  61.7394587854
S	  11.4032000000	  26.7737000000	  61.0980687854
O	  12.7238000000	  27.1178000000	  61.5550087854
O	  11.1360000000	  26.8310000000	  59.7175587854
C	  11.3593000000	  25.0104000000	  61.4945687854
F	  10.8672000000	  24.8983000000	  62.7837887854
F	  10.4838000000	  24.3284000000	  60.7309687854
F	  12.4579000000	  24.2745000000	  61.3622687854
N	   7.2622600000	  23.2957000000	  59.2413287854
S	   7.1288200000	  24.7392000000	  58.7054000000
O	   6.1597800000	  25.6308000000	  59.3555187854
O	   8.3584800000	  25.3366000000	  58.3090000000
C	   6.3501100000	  24.3932000000	  57.0393000000
F	   5.1081100000	  23.8616000000	  57.2284000000
F	   7.0683200000	  23.5102000000	  56.3927000000
F	   6.1471900000	  25.4164000000	  56.2853000000
S	   7.2270800000	  22.8615000000	  60.7174587854
O	   7.0765800000	  23.9872000000	  61.5529087854
O	   8.1809000000	  21.8691000000	  61.0562687854
C	   5.6879700000	  21.9136000000	  60.9990387854
F	   4.5522000000	  22.4720000000	  60.5237587854
F	   5.6850300000	  20.7356000000	  60.3624287854
F	   5.3718500000	  21.7501000000	  62.2765287854
S	  16.0047000000	  37.2492000000	  55.7844000000
S	  16.0016000000	  35.5041000000	  54.6009000000
S	  14.2411000000	  34.4844000000	  54.6472000000
S	  11.2726000000	  30.6319000000	  55.0899000000
S	  11.1271000000	  28.7636000000	  56.0694000000
S	   9.1999100000	  28.2310000000	  56.8194000000
S	  12.3063000000	  32.0510000000	  56.2619000000
S	  14.2574000000	  32.5485000000	  55.6222000000
