35

Li	   6.9061000000	  15.8298000000	  41.6313000000
O	   4.4154700000	  12.9889000000	  40.4917000000
O	   5.6648900000	  14.5407000000	  41.5335000000
C	   5.0720600000	  12.3054000000	  41.5205000000
C	   6.1881900000	  13.2696000000	  41.7114000000
C	   4.5172500000	  14.3382000000	  40.8678000000
H	   4.5387400000	  12.3330000000	  42.4571000000
H	   5.4854300000	  11.3752000000	  41.1441000000
H	   6.5049000000	  13.2347000000	  42.7885000000
H	   7.0647700000	  13.0835000000	  41.0708000000
H	   4.4402000000	  14.9422000000	  39.9782000000
H	   3.6841100000	  14.6342000000	  41.5925000000
N	   6.8160400000	  18.8383000000	  39.4268000000
S	   6.5982000000	  17.5269000000	  38.7214000000
O	   7.0557700000	  17.4882000000	  37.3654000000
O	   6.8059300000	  16.3883000000	  39.5391000000
C	   4.7328300000	  17.6269000000	  38.5309000000
F	   4.0972800000	  17.8048000000	  39.6743000000
F	   4.1948800000	  16.5819000000	  37.8898000000
F	   4.4455800000	  18.6826000000	  37.8157000000
S	   7.4155700000	  19.1330000000	  40.8520000000
O	   8.5636100000	  19.9640000000	  40.8068000000
O	   7.4757000000	  17.9684000000	  41.6947000000
C	   6.1175700000	  20.1534000000	  41.6312000000
F	   6.5475200000	  20.8434000000	  42.6385000000
F	   5.6574500000	  21.0036000000	  40.7296000000
F	   5.1359100000	  19.4249000000	  42.1901000000
S	  14.4737000000	  21.2016000000	  37.0193000000
S	  14.5912000000	  19.1331000000	  36.6296000000
S	  12.8111000000	  18.1088000000	  36.7671000000
S	   9.9500800000	  15.6684000000	  39.9037000000
S	   9.9139900000	  14.4808000000	  41.6616000000
S	   8.5174900000	  15.1358000000	  43.1404000000
S	  11.4393000000	  17.2327000000	  39.8913000000
S	  12.8618000000	  16.7390000000	  38.3291000000
