39

Li	  52.4866000000	  21.4183000000	   8.0249000000
O	  54.1406000000	  24.8285000000	   9.2109600000
O	  52.9435000000	  22.8346000000	   9.0001800000
C	  53.0221000000	  24.9200000000	  10.0627000000
C	  52.0380000000	  23.8506000000	   9.4820800000
C	  54.0021000000	  23.6295000000	   8.4569500000
H	  53.3425000000	  24.5898000000	  11.0440000000
H	  52.5027000000	  25.9076000000	  10.1193000000
H	  51.4488000000	  23.5640000000	  10.3379000000
H	  51.3572000000	  24.3143000000	   8.7603600000
H	  53.8072000000	  24.0231000000	   7.4252400000
H	  54.9098000000	  23.0112000000	   8.4384500000
O	  51.1786000000	  19.2783000000	  11.2656000000
O	  51.7321000000	  20.4217000000	   9.4420700000
C	  49.9256000000	  19.5939000000	  10.6214000000
C	  50.2645000000	  20.4496000000	   9.4341900000
C	  52.0928000000	  20.2322000000	  10.7909000000
H	  49.4726000000	  18.7094000000	  10.1812000000
H	  49.3245000000	  20.1226000000	  11.3655000000
H	  49.9343000000	  20.0374000000	   8.5127000000
H	  49.8131000000	  21.3745000000	   9.6303100000
H	  52.2165000000	  21.1097000000	  11.4271000000
H	  53.1262000000	  19.8434000000	  10.6818000000
S	  41.1583000000	  26.1559000000	   4.0986900000
S	  42.6727000000	  26.2849000000	   5.6577000000
S	  43.7767000000	  24.4929000000	   5.4952000000
S	  48.8151000000	  24.1925000000	   6.9975900000
S	  49.4004000000	  22.2573000000	   6.6213900000
S	  51.4833000000	  22.0964000000	   6.1768900000
S	  46.6962000000	  24.3719000000	   7.1869100000
S	  45.8334000000	  24.7270000000	   5.2454000000
S	  54.4727000000	  20.5050000000	   7.5536900000
S	  53.8855000000	  19.1679000000	   6.1124900000
S	  51.9985000000	  18.1467000000	   6.5388400000
S	  46.9606000000	  17.5869000000	   5.7476700000
S	  46.6518000000	  16.2003000000	   7.3612800000
S	  47.0584000000	  17.0036000000	   9.2917700000
S	  48.8561000000	  17.3589000000	   4.8524200000
S	  50.2924000000	  18.9207000000	   5.4960200000
