49

Li	  37.6007000000	   2.0465600000	  45.6256000000
O	  37.4652000000	   3.7053400000	  46.4213000000
O	  38.2957000000	   5.7434000000	  46.3648000000
C	  37.4763000000	   4.0725800000	  47.7869000000
C	  38.2374000000	   5.4293900000	  47.7614000000
C	  37.4132000000	   4.9011100000	  45.7624000000
H	  36.5115000000	   4.2983000000	  48.1060000000
H	  37.9442000000	   3.3844300000	  48.4191000000
H	  37.9407000000	   6.2221100000	  48.4632000000
H	  39.2984000000	   5.1349600000	  47.9834000000
H	  37.7805000000	   4.7831500000	  44.7381000000
H	  36.4937000000	   5.4183700000	  45.7642000000
F	  33.0652000000	   3.0828300000	  44.1401000000
F	  34.6427000000	   3.1421100000	  45.6906000000
F	  33.6643000000	   1.2632100000	  44.9333000000
F	  42.6488000000	   2.2303200000	  44.0460000000
F	  41.9527000000	   0.9017008225	  45.4588000000
F	  41.2125000000	   0.7707008225	  43.3060000000
O	  36.4287000000	   2.2667200000	  43.9218000000
O	  39.0706000000	   2.1730600000	  44.5066000000
C	  37.3376000000	   1.7112500000	  42.8888000000
C	  38.6604000000	   2.3346000000	  43.1026000000
C	  35.0773000000	   2.1256100000	  43.4902000000
C	  40.3728000000	   2.5662300000	  44.6658000000
C	  34.1008000000	   2.4344100000	  44.6453000000
C	  41.5609000000	   1.5434500000	  44.3743000000
H	  37.4243000000	   0.5979008225	  42.9730000000
H	  37.1192000000	   1.9429800000	  41.8513000000
H	  39.3682000000	   1.8322400000	  42.3859000000
H	  38.5896000000	   3.3498400000	  42.7566000000
H	  34.8532000000	   1.1475100000	  43.1530000000
H	  34.8701000000	   2.6290300000	  42.5475000000
H	  40.5996000000	   3.4909200000	  44.1823000000
H	  40.4740000000	   2.7224500000	  45.7249000000
N	  37.9479000000	  -0.7232991775	  47.7765000000
S	  39.4133000000	  -0.0936991775	  47.4206000000
O	  40.3641000000	  -1.0141991775	  46.8399000000
O	  39.1899000000	   1.2406900000	  46.9601000000
C	  40.1802000000	   0.2585008225	  49.1004000000
F	  39.2972000000	   0.9325008225	  49.8228000000
F	  41.2405000000	   0.9673008225	  48.9529000000
F	  40.5162000000	  -0.8230991775	  49.7371000000
S	  36.6095000000	  -0.5970991775	  47.0641000000
O	  36.0110000000	  -1.8299991775	  46.8145000000
O	  36.6345000000	   0.4311008225	  46.0226000000
C	  35.6384000000	   0.1609008225	  48.4357000000
F	  36.3670000000	   0.9966008225	  49.2280000000
F	  34.6505000000	   0.9318008225	  48.0497000000
F	  34.9394000000	  -0.7256991775	  49.1770000000
