42

Li	  21.2535000000	  47.6354000000	  41.3906000000
O	  23.4707000000	  50.1664000000	  43.6924000000
O	  22.5079000000	  48.7969000000	  42.1876000000
C	  23.0044000000	  49.1132000000	  44.4747000000
C	  22.3841000000	  48.2653000000	  43.4356000000
C	  22.7430000000	  50.1439000000	  42.5254000000
H	  23.7926000000	  48.4983000000	  44.9094000000
H	  22.3419000000	  49.4254000000	  45.2914000000
H	  22.8474000000	  47.3006000000	  43.4240000000
H	  21.3297000000	  48.1662000000	  43.6661000000
H	  21.8145000000	  50.5736000000	  42.7222000000
H	  23.3121000000	  50.7133000000	  41.8046000000
O	  22.2907000000	  45.7810000000	  41.6660000000
O	  22.5248000000	  43.7563000000	  42.5336000000
C	  23.6308000000	  45.4663000000	  41.4868000000
C	  23.8218000000	  44.0331000000	  41.9609000000
C	  21.6716000000	  44.5701000000	  41.8193000000
H	  23.8978000000	  45.6588000000	  40.4166000000
H	  24.2637000000	  46.2116000000	  42.0138000000
H	  24.1827000000	  43.4782000000	  41.0590000000
H	  24.6898000000	  43.9065000000	  42.6438000000
H	  20.8069000000	  44.5311000000	  42.4310000000
H	  21.3929000000	  44.1663000000	  40.8396000000
O	  21.2360000000	  48.1538000000	  39.6257000000
O	  22.5187000000	  48.7364000000	  37.8837000000
C	  20.6969000000	  49.3927000000	  39.1823000000
C	  21.5206000000	  49.7545000000	  37.9079000000
C	  22.4968000000	  48.0028000000	  39.0640000000
H	  19.6128000000	  49.4135000000	  39.1055000000
H	  20.8933000000	  50.1199000000	  39.9623000000
H	  20.8173000000	  49.8335000000	  37.0552000000
H	  21.9816000000	  50.7227000000	  37.9633000000
H	  23.2053000000	  48.4195000000	  39.7221000000
H	  22.7306000000	  46.9424000000	  38.8878000000
S	  19.1008000000	  47.2327000000	  41.9808000000
S	  19.0613000000	  45.9174000000	  40.3918000000
S	  17.2975000000	  44.8219000000	  40.3042000000
S	  17.6799000000	  39.7317000000	  39.9868000000
S	  18.2592000000	  38.9771000000	  38.0485000000
S	  17.4749000000	  37.0135000000	  37.7086000000
S	  16.5040000000	  41.5269000000	  39.8522000000
S	  17.3910000000	  42.9865000000	  41.1194000000
