38

Li	  12.9433000000	  35.1370000000	  43.3634000000
F	  16.6473000000	  37.0049000000	  44.0022000000
F	  16.5462000000	  38.4944000000	  42.2286000000
F	  17.5270000000	  36.4393000000	  42.1157000000
F	  11.8364000000	  33.4747000000	  45.3988000000
F	  10.9731000000	  33.6998000000	  47.4063000000
F	   9.7775400000	  34.0155000000	  45.6960000000
O	  14.2473000000	  36.3803000000	  42.9945000000
O	  12.1177000000	  35.8742000000	  44.8123000000
C	  13.3169000000	  37.4499000000	  43.2236000000
C	  12.5770000000	  37.2687000000	  44.5520000000
C	  15.2606000000	  36.6486000000	  42.0785000000
C	  11.4536000000	  35.7284000000	  46.0305000000
C	  16.5729000000	  37.1943000000	  42.6463000000
C	  11.0283000000	  34.2121000000	  46.1457000000
H	  13.8023000000	  38.4007000000	  43.2029000000
H	  12.5828000000	  37.3872000000	  42.4153000000
H	  13.2541000000	  37.5937000000	  45.4144000000
H	  11.8052000000	  38.0373000000	  44.5653000000
H	  14.9147000000	  37.2143000000	  41.2746000000
H	  15.6020000000	  35.6620000000	  41.7546000000
H	  12.1140000000	  36.0226000000	  46.9042000000
H	  10.6546000000	  36.4448000000	  46.1083000000
N	  15.1659000000	  32.1817000000	  43.6583000000
S	  14.2314000000	  32.1531000000	  42.4008000000
O	  13.5813000000	  33.4580000000	  42.2273000000
O	  14.8386000000	  31.5437000000	  41.2366000000
C	  12.9113000000	  31.0088000000	  42.9530000000
F	  12.0141000000	  31.6030000000	  43.6871000000
F	  13.4993000000	  29.9738000000	  43.6082000000
F	  12.2724000000	  30.4626000000	  41.9395000000
S	  15.3893000000	  33.4079000000	  44.6036000000
O	  14.3774000000	  34.4058000000	  44.5333000000
O	  16.7222000000	  33.7124000000	  44.6144000000
C	  15.1320000000	  32.6927000000	  46.2902000000
F	  15.0976000000	  33.6476000000	  47.1621000000
F	  13.9825000000	  32.1276000000	  46.3370000000
F	  16.0546000000	  31.8203000000	  46.5962000000
