64

Li	  44.5170000000	  36.2225000000	  14.7464000000
O	  45.2182000000	  35.1266000000	  16.5712000000
O	  45.8112000000	  33.8003000000	  18.3657000000
C	  46.4783000000	  35.5943000000	  17.0040000000
C	  46.9763000000	  34.6507000000	  18.1504000000
C	  44.8069000000	  34.5194000000	  17.7755000000
H	  47.2897000000	  35.7781000000	  16.3305000000
H	  46.3872000000	  36.5516000000	  17.5836000000
H	  47.8830000000	  34.0422000000	  17.8720000000
H	  47.1805000000	  35.1545000000	  19.0759000000
H	  44.4794000000	  35.3255000000	  18.3327000000
H	  43.9994000000	  33.9374000000	  17.5205000000
F	  39.0277000000	  37.3986000000	  11.6430000000
F	  40.3263000000	  35.8847000000	  10.7539000000
F	  40.4114000000	  37.8946000000	   9.9475000000
F	  43.7583000000	  33.1284000000	  15.1599000000
F	  44.2872000000	  31.6494000000	  13.7545000000
F	  45.7302000000	  32.0914000000	  15.3085000000
O	  42.1409000000	  36.4226000000	  12.4029000000
O	  44.7028000000	  34.9591000000	  13.2538000000
C	  43.3083000000	  36.1773000000	  11.5792000000
C	  43.9598000000	  34.7999000000	  12.0110000000
C	  41.2921000000	  37.5332000000	  12.1101000000
C	  45.5118000000	  33.8128000000	  13.7204000000
C	  40.1797000000	  37.1944000000	  11.0469000000
C	  44.7954000000	  32.6744000000	  14.4840000000
H	  43.0520000000	  36.2249000000	  10.5126000000
H	  43.9987000000	  37.0352000000	  11.6471000000
H	  43.1693000000	  34.0484000000	  12.2320000000
H	  44.7421000000	  34.4425000000	  11.3767000000
H	  41.7976000000	  38.4640000000	  11.8138000000
H	  40.8310000000	  37.8248000000	  13.0127000000
H	  46.1019000000	  33.3800000000	  12.8676000000
H	  46.2764000000	  34.2415000000	  14.3992000000
N	  42.1152000000	  36.7622000000	  17.6905000000
S	  41.5377000000	  36.9590000000	  16.2524000000
O	  40.5464000000	  38.0297000000	  16.2564000000
O	  42.6007000000	  37.0463000000	  15.2858000000
C	  40.6895000000	  35.3749000000	  15.8834000000
F	  41.4571000000	  34.3856000000	  16.0882000000
F	  40.3003000000	  35.3795000000	  14.6297000000
F	  39.5850000000	  35.2128000000	  16.5561000000
S	  41.3948000000	  37.1555000000	  18.9963000000
O	  39.9840000000	  36.7519000000	  18.9476000000
O	  41.7694000000	  38.4027000000	  19.4825000000
C	  42.1978000000	  36.0378000000	  20.3024000000
F	  41.9764000000	  34.7734000000	  19.9336000000
F	  43.5029000000	  36.2932000000	  20.4594000000
F	  41.7233000000	  36.0844000000	  21.4757000000
N	  46.5897000000	  39.2753000000	  13.1927000000
S	  47.3699000000	  38.1712000000	  13.9950000000
O	  48.2549000000	  38.6533000000	  15.0463000000
O	  46.4343000000	  37.1081000000	  14.3908000000
C	  48.3459000000	  37.4169000000	  12.6561000000
F	  49.0037000000	  38.3907000000	  11.9896000000
F	  47.6007000000	  36.6045000000	  11.8105000000
F	  49.3121000000	  36.6145000000	  13.1644000000
S	  45.0497000000	  39.6104000000	  13.2171000000
O	  44.8506000000	  40.8643000000	  13.8978000000
O	  44.1544000000	  38.4972000000	  13.5002000000
C	  44.7805000000	  40.0769000000	  11.4664000000
F	  45.4456000000	  41.1590000000	  11.0103000000
F	  45.1701000000	  39.0501000000	  10.6578000000
F	  43.4462000000	  40.3312000000	  11.3656000000
