28

Li	  14.8412000000	  19.3315000000	   8.4981500000
O	  14.3488000000	  20.7599000000	   9.7080100000
O	  14.6917000000	  22.7653000000	  10.7229000000
C	  13.6670000000	  21.7524000000	   8.9580800000
C	  13.7314000000	  23.0325000000	   9.7332900000
C	  14.5208000000	  21.4338000000	  10.9140000000
H	  14.0006000000	  21.8945000000	   8.0126400000
H	  12.6017000000	  21.5195000000	   8.7762800000
H	  14.1181000000	  23.8439000000	   9.0360100000
H	  12.8338000000	  23.3461000000	  10.2040000000
H	  13.7049000000	  21.2536000000	  11.5512000000
H	  15.3883000000	  20.9675000000	  11.3538000000
S	  13.8381000000	  18.9177000000	   6.6208200000
S	  12.1113000000	  18.4417000000	   7.7854700000
S	  12.4919000000	  17.8104000000	   9.7242600000
S	  14.2561000000	  13.6971000000	  11.8444000000
S	  14.3111000000	  13.0847000000	  13.9128000000
S	  13.6691000000	  11.0014000000	  14.0102000000
S	  12.4975000000	  14.8390000000	  11.5226000000
S	  12.3779000000	  15.7202000000	   9.7088800000
S	  16.4342000000	  17.6309000000	   8.7368400000
S	  17.1383000000	  19.5648000000	   8.1674100000
S	  17.1002000000	  19.8235000000	   6.0902800000
S	  17.9204000000	  23.4886000000	   2.6679600000
S	  19.9900000000	  23.1342000000	   2.5296200000
S	  20.6036000000	  22.9572000000	   0.5196612146
S	  17.2733000000	  23.1569000000	   4.8033200000
S	  15.9450000000	  21.4513000000	   5.2107700000
