54

Li	  10.1582000000	  26.5176000000	  55.2984000000
N	  11.3020000000	  23.4373000000	  53.3016000000
S	  11.4626000000	  22.0501000000	  52.6384000000
O	  10.3240000000	  21.2149000000	  52.8120000000
O	  12.1472000000	  22.1322000000	  51.3703000000
C	  12.6661000000	  21.2077000000	  53.6958000000
F	  13.8579000000	  21.7675000000	  53.5925000000
F	  12.7438000000	  19.8713000000	  53.3581000000
F	  12.2931000000	  21.1462000000	  55.0030000000
S	  11.6747000000	  24.8500000000	  52.7811000000
O	  11.1000000000	  25.9234000000	  53.5403000000
O	  11.5795000000	  24.9708000000	  51.2845000000
C	  13.5039000000	  25.0287000000	  53.1398000000
F	  13.6993000000	  24.7103000000	  54.4356000000
F	  14.1625000000	  24.1222000000	  52.3779000000
F	  13.9922000000	  26.2139000000	  52.8293000000
N	   9.7735900000	  25.5302000000	  59.4798987854
S	   8.5172400000	  26.4550000000	  59.3567987854
O	   8.8397100000	  27.5567000000	  58.5444000000
O	   7.2254500000	  25.7959000000	  59.1381487854
C	   8.4639200000	  27.0235000000	  61.0582687854
F	   7.3727000000	  27.6728000000	  61.3653887854
F	   9.5122000000	  27.8053000000	  61.3313087854
F	   8.5317900000	  25.9500000000	  61.8109187854
S	  11.0647000000	  25.4858000000	  58.5517000000
O	  12.2663000000	  25.8167000000	  59.3481587854
O	  10.8895000000	  26.0290000000	  57.2360000000
C	  11.2776000000	  23.6890000000	  58.2541000000
F	  10.3023000000	  23.2233000000	  57.5050000000
F	  12.3950000000	  23.4634000000	  57.6635000000
F	  11.3996000000	  22.9562000000	  59.3450087854
N	   7.5641800000	  22.8279000000	  55.6382000000
S	   7.6749600000	  24.3687000000	  55.5082000000
O	   6.7983300000	  25.0960000000	  56.3928000000
O	   9.0204300000	  24.8805000000	  55.3371000000
C	   6.9504300000	  24.6671000000	  53.8804000000
F	   5.8484200000	  23.9539000000	  53.6872000000
F	   7.6965400000	  24.2955000000	  52.8484000000
F	   6.6819300000	  25.9353000000	  53.6815000000
S	   7.0243400000	  21.8991000000	  56.8547000000
O	   6.7227800000	  22.5962000000	  58.0750000000
O	   7.6964000000	  20.6302000000	  56.9049000000
C	   5.3534900000	  21.4038000000	  56.1961000000
F	   4.7081100000	  22.4049000000	  55.6202000000
F	   5.4218800000	  20.3766000000	  55.3348000000
F	   4.5672700000	  20.9156000000	  57.1866000000
S	  16.0308000000	  35.7666000000	  57.7755000000
S	  16.2915000000	  35.2645000000	  55.6839000000
S	  14.5461000000	  34.5610000000	  54.9245000000
S	  11.5106000000	  31.1611000000	  55.8342000000
S	  10.8491000000	  29.1368000000	  56.0135000000
S	   9.3881300000	  28.5694000000	  54.6320000000
S	  13.5125000000	  31.2877000000	  56.2407000000
S	  14.5412000000	  32.4438000000	  54.7204000000
