64

Li	  41.2754000000	  47.0200000000	  13.4394000000
O	  44.3305000000	  47.6231000000	  10.1609000000
O	  42.5124000000	  47.4208000000	  11.4076000000
C	  43.3096000000	  47.0411000000	   9.4347000000
C	  42.3151000000	  46.5221000000	  10.3813000000
C	  43.8702000000	  47.5571000000	  11.4697000000
H	  42.8925000000	  47.7310000000	   8.7259100000
H	  43.7498000000	  46.2473000000	   8.7406300000
H	  41.2562000000	  46.7276000000	   9.9952000000
H	  42.4363000000	  45.4912000000	  10.6404000000
H	  44.3653000000	  46.7108000000	  12.0391000000
H	  44.1465000000	  48.5262000000	  11.9042000000
F	  45.4085000000	  47.1141000000	  14.8419000000
F	  45.2201000000	  48.4804000000	  16.4684000000
F	  44.2769000000	  48.9922000000	  14.5546000000
F	  38.7685000000	  43.2533000000	  11.2368000000
F	  40.4691000000	  44.4826000000	  10.8892000000
F	  40.8208000000	  42.6958000000	  11.8962000000
O	  42.6614000000	  46.5236000000	  14.8655000000
O	  40.9212000000	  45.2141000000	  13.5609000000
C	  43.1396000000	  45.2620000000	  14.4513000000
C	  41.8284000000	  44.5246000000	  14.3147000000
C	  43.3342000000	  47.1860000000	  15.9208000000
C	  39.7276000000	  44.4451000000	  13.0814000000
C	  44.5842000000	  47.9670000000	  15.4478000000
C	  39.9505000000	  43.6578000000	  11.7658000000
H	  43.7185000000	  45.2569000000	  13.4556000000
H	  43.7744000000	  44.8097000000	  15.2359000000
H	  41.9115000000	  43.4923000000	  13.9695000000
H	  41.5217000000	  44.3042000000	  15.3422000000
H	  43.6319000000	  46.3993000000	  16.6354000000
H	  42.6149000000	  47.7908000000	  16.4222000000
H	  39.3910000000	  43.7149000000	  13.7924000000
H	  38.9195000000	  45.0728000000	  13.0385000000
N	  38.9701000000	  49.6005000000	  13.4065000000
S	  40.1694000000	  49.8236000000	  14.4398000000
O	  39.7388000000	  49.9760000000	  15.8097000000
O	  41.3389000000	  49.0452000000	  14.1772000000
C	  40.7767000000	  51.5378000000	  14.0424000000
F	  41.0880000000	  51.6131000000	  12.7730000000
F	  41.7671000000	  51.9692000000	  14.8014000000
F	  39.7877000000	  52.3035000000	  14.2619000000
S	  38.9526000000	  48.5654000000	  12.2611000000
O	  37.7196000000	  47.8788000000	  12.1981000000
O	  40.1257000000	  47.7475000000	  12.1866000000
C	  38.9800000000	  49.6404000000	  10.7435000000
F	  37.8702000000	  50.3980000000	  10.7108000000
F	  40.0032000000	  50.4493000000	  10.6175000000
F	  39.0782000000	  48.9116000000	   9.6621100000
N	  38.8299000000	  47.0436000000	  17.7628000000
S	  39.8113000000	  47.7390000000	  18.7337000000
O	  41.1475000000	  47.3725000000	  18.3669000000
O	  39.5602000000	  49.1630000000	  18.8618000000
C	  39.6121000000	  46.9942000000	  20.4112000000
F	  39.3567000000	  45.6615000000	  20.2433000000
F	  38.5445000000	  47.4605000000	  20.8837000000
F	  40.5895000000	  47.1457000000	  21.2787000000
S	  39.0044000000	  46.3079000000	  16.4293000000
O	  38.9577000000	  44.8788000000	  16.4346000000
O	  39.9094000000	  46.8726000000	  15.5026000000
C	  37.3999000000	  46.7493000000	  15.6105000000
F	  37.3209000000	  48.0618000000	  15.3593000000
F	  37.1767000000	  46.1194000000	  14.4357000000
F	  36.3851000000	  46.4594000000	  16.3981000000
