57

Li	   7.3510000000	  21.7438000000	  52.1986000000
O	   6.3676500000	  20.6565000000	  51.0739000000
O	   4.8321800000	  19.6946000000	  49.8023000000
C	   6.8778300000	  19.4240000000	  50.7521000000
C	   5.6792000000	  18.6673000000	  50.3004000000
C	   5.0871200000	  20.7551000000	  50.6602000000
H	   7.6399000000	  19.4588000000	  50.0012000000
H	   7.2684200000	  18.9980000000	  51.6274000000
H	   5.7851000000	  17.9353000000	  49.5727000000
H	   5.2119500000	  18.1717000000	  51.2121000000
H	   4.3570100000	  20.6965000000	  51.4578000000
H	   4.9378100000	  21.7475000000	  50.2560000000
N	   9.4052300000	  22.2158000000	  49.2563000000
S	  10.1307000000	  21.7396000000	  50.5062000000
O	  11.1165000000	  22.7040000000	  50.9193000000
O	   9.2381700000	  21.2208000000	  51.5308000000
C	  11.0669000000	  20.2528000000	  49.9650000000
F	  11.9174000000	  19.7665000000	  50.9028000000
F	  11.8232000000	  20.5445000000	  48.8737000000
F	  10.2622000000	  19.3256000000	  49.5635000000
S	   8.0115200000	  22.9841000000	  49.2020000000
O	   7.3054500000	  23.0241000000	  50.4451000000
O	   7.2014900000	  22.5459000000	  48.0935000000
C	   8.4914000000	  24.6932000000	  48.9227000000
F	   9.0136800000	  24.8240000000	  47.6807000000
F	   7.4947100000	  25.5434000000	  49.1291000000
F	   9.4303500000	  25.0886000000	  49.7434000000
N	   9.0789000000	  22.1430000000	  55.5591000000
S	   8.3666000000	  20.7798000000	  55.2005000000
O	   7.7039100000	  20.0842000000	  56.2414000000
O	   7.5429300000	  20.8534000000	  54.0120000000
C	   9.7763200000	  19.6438000000	  54.6984000000
F	  10.6290000000	  19.3425000000	  55.6660000000
F	  10.4657000000	  20.0521000000	  53.6646000000
F	   9.2786500000	  18.5257000000	  54.2583000000
S	   9.1886400000	  23.4846000000	  54.7625000000
O	   8.9503400000	  24.6975000000	  55.5328000000
O	   8.7418700000	  23.3613000000	  53.3946000000
C	  11.0282000000	  23.5936000000	  54.6572000000
F	  11.5553000000	  22.6196000000	  53.9597000000
F	  11.3066000000	  24.7213000000	  54.0623000000
F	  11.5902000000	  23.5352000000	  55.8290000000
N	   4.6899500000	  23.2568000000	  55.0778000000
S	   5.4151700000	  23.7450000000	  53.7438000000
O	   6.3359800000	  24.8271000000	  54.0160000000
O	   5.8219100000	  22.7034000000	  52.8686000000
C	   4.0298800000	  24.5612000000	  52.9436000000
F	   3.1853900000	  23.7664000000	  52.3399000000
F	   4.4505600000	  25.3726000000	  52.0237000000
F	   3.3267700000	  25.3132000000	  53.8025000000
S	   5.2612200000	  23.2548000000	  56.5599000000
O	   6.2444900000	  24.2402000000	  56.7884000000
O	   5.5018300000	  21.9846000000	  57.0992000000
C	   3.8533600000	  23.8740000000	  57.5814000000
F	   3.2602800000	  25.0387000000	  57.1215000000
F	   2.9327300000	  22.9719000000	  57.5649000000
F	   4.1360600000	  24.0612000000	  58.8142000000
