53

Li	  20.9075000000	  53.9182000000	  32.5819000000
O	  19.2225000000	  54.8286000000	  31.9232000000
O	  17.8751000000	  55.5900000000	  30.3825000000
C	  18.6329000000	  56.0258000000	  32.4578000000
C	  17.7107000000	  56.5331000000	  31.3680000000
C	  18.2462000000	  54.4023000000	  30.9996000000
H	  18.2075000000	  55.9465000000	  33.4340000000
H	  19.4343000000	  56.6406000000	  32.6690000000
H	  16.6342000000	  56.4320000000	  31.5993000000
H	  17.8741000000	  57.5812000000	  31.1080000000
H	  18.6246000000	  53.7252000000	  30.2402000000
H	  17.4559000000	  53.7977000000	  31.4476000000
O	  22.2876000000	  55.0265000000	  32.0490000000
O	  22.0218000000	  57.1525000000	  31.3339000000
C	  22.0601000000	  54.9202000000	  30.6755000000
C	  21.7563000000	  56.3688000000	  30.2452000000
C	  22.7286000000	  56.2994000000	  32.1658000000
H	  22.9420000000	  54.5986000000	  30.1589000000
H	  21.2644000000	  54.2109000000	  30.3524000000
H	  22.5029000000	  56.8557000000	  29.6258000000
H	  20.7632000000	  56.4163000000	  29.8189000000
H	  22.6080000000	  56.5955000000	  33.1702000000
H	  23.8195000000	  56.2605000000	  31.9040000000
N	  18.9724000000	  50.6710000000	  30.7408000000
S	  19.5596000000	  50.7688000000	  32.1638000000
O	  20.1979000000	  49.6539000000	  32.7258000000
O	  20.1172000000	  52.0780000000	  32.4292000000
C	  17.9687000000	  50.8001000000	  33.2060000000
F	  17.1632000000	  51.7456000000	  32.8188000000
F	  18.2232000000	  51.0309000000	  34.4649000000
F	  17.3410000000	  49.6687000000	  33.0558000000
S	  19.5347000000	  49.6212000000	  29.7349000000
O	  18.6867000000	  48.4541000000	  29.4570000000
O	  20.9560000000	  49.4430000000	  29.6576000000
C	  19.2680000000	  50.6077000000	  28.1541000000
F	  19.8707000000	  50.1196000000	  27.1109000000
F	  18.0253000000	  50.7301000000	  27.8068000000
F	  19.7570000000	  51.8448000000	  28.2495000000
N	  19.4700000000	  54.4771000000	  36.8338000000
S	  17.9682000000	  54.9527000000	  37.1985000000
O	  17.6393000000	  54.6456000000	  38.5678000000
O	  17.6842000000	  56.3117000000	  36.8062000000
C	  16.9431000000	  53.8087000000	  36.2508000000
F	  17.3203000000	  52.4887000000	  36.3315000000
F	  17.0110000000	  54.1770000000	  34.9565000000
F	  15.7086000000	  53.8158000000	  36.6108000000
S	  20.3679000000	  55.1211000000	  35.6778000000
O	  20.1282000000	  56.5432000000	  35.5169000000
O	  20.4840000000	  54.3598000000	  34.4337000000
C	  21.9945000000	  55.0925000000	  36.4043000000
F	  22.1213000000	  55.8526000000	  37.4649000000
F	  22.4765000000	  53.8738000000	  36.7277000000
F	  22.8664000000	  55.5671000000	  35.5653000000
