32

Li	  40.4262000000	  28.4069000000	  25.0689000000
N	  38.5880000000	  32.2147000000	  25.1295000000
S	  39.1811000000	  31.2905000000	  24.0262000000
O	  39.4205000000	  29.8678000000	  24.4044000000
O	  38.6344000000	  31.4696000000	  22.7127000000
C	  40.7535000000	  31.9783000000	  23.7697000000
F	  40.6251000000	  33.0375000000	  23.0026000000
F	  41.7632000000	  31.2556000000	  23.1941000000
F	  41.2368000000	  32.4273000000	  24.9462000000
S	  37.0633000000	  32.3759000000	  25.2765000000
O	  36.2548000000	  31.2767000000	  24.7961000000
O	  36.6753000000	  33.7537000000	  25.0500000000
C	  36.8659000000	  32.0968000000	  27.0410000000
F	  37.7026000000	  32.8875000000	  27.6703000000
F	  35.6279000000	  32.4260000000	  27.3342000000
F	  36.9580000000	  30.8137000000	  27.4263000000
S	  43.3778000000	  35.9213000000	  31.5523000000
S	  42.8540000000	  33.9118000000	  32.0423000000
S	  44.4344000000	  32.4707000000	  32.0914000000
S	  44.4740000000	  29.3521000000	  27.5768000000
S	  43.2352000000	  30.0549000000	  26.0332000000
S	  42.6059000000	  28.5371000000	  24.7854000000
S	  45.2920000000	  30.8241000000	  28.8829000000
S	  44.0865000000	  31.0353000000	  30.6675000000
S	  39.3161000000	  26.6502000000	  25.5391000000
S	  38.4861000000	  27.8802000000	  27.0324000000
S	  39.8896000000	  29.2401000000	  27.8353000000
S	  38.3043000000	  31.1745000000	  32.6993000000
S	  36.9409000000	  30.1749000000	  33.9452000000
S	  35.4389000000	  31.5075000000	  34.7590000000
S	  38.2742000000	  30.6456000000	  30.6067000000
S	  39.7627000000	  29.3473000000	  29.9013000000
