28

Li	   1.9791600000	  18.8663000000	   8.2049500000
O	   0.5161881559	  19.6463000000	   9.2716900000
O	  -1.1543118441	  19.1042000000	  10.7778000000
C	  -0.3169118441	  20.7660000000	   9.3673300000
C	  -1.3332118441	  20.4268000000	  10.4126000000
C	  -0.3648118441	  18.6539000000	   9.7258000000
H	   0.2029881559	  21.7133000000	   9.5272000000
H	  -0.7320118441	  20.9023000000	   8.4207200000
H	  -1.2666118441	  21.0092000000	  11.3249000000
H	  -2.2740118441	  20.5672000000	   9.8642900000
H	  -1.0229118441	  18.2911000000	   8.9492300000
H	   0.2478881559	  17.8513000000	  10.0895000000
S	  -8.1649118441	  18.2792000000	   2.8786300000
S	  -6.0079118441	  18.6254000000	   3.1801400000
S	  -5.7048118441	  18.6544000000	   5.2332400000
S	  -0.8429118441	  19.5693000000	   5.4037300000
S	   0.9123881559	  18.6416000000	   6.1443800000
S	   2.2353300000	  20.2386000000	   6.6518400000
S	  -2.4751118441	  19.3178000000	   6.7540100000
S	  -4.2985118441	  20.0962000000	   5.8533700000
S	   3.0473000000	  17.3695000000	   8.9960100000
S	   1.9117500000	  15.6221000000	   9.2806700000
S	   0.2435881559	  15.4250000000	   8.0556800000
S	  -3.3019118441	  13.5194000000	  10.9606000000
S	  -5.3604118441	  12.7503000000	  11.0362000000
S	  -6.7988118441	  14.1248000000	  11.6202000000
S	  -2.7166118441	  13.9406000000	   9.0281100000
S	  -1.5808118441	  15.6310000000	   9.0939900000
