50

Li	  13.1979000000	  55.3648000000	  37.5662000000
O	  17.0190000000	  54.4458000000	  38.3287000000
O	  14.9190000000	  54.9622000000	  38.1586000000
C	  16.5303000000	  53.4679000000	  37.4136000000
C	  15.1790000000	  54.0833000000	  37.0479000000
C	  15.8545000000	  54.7324000000	  39.0679000000
H	  17.1705000000	  53.3869000000	  36.6092000000
H	  16.5500000000	  52.4702000000	  37.8893000000
H	  15.2445000000	  54.5574000000	  36.0863000000
H	  14.4122000000	  53.3530000000	  36.8787000000
H	  15.6428000000	  53.9488000000	  39.8183000000
H	  15.9804000000	  55.6398000000	  39.6047000000
N	  11.4381000000	  51.9685000000	  37.6860000000
S	  12.3196000000	  52.1247000000	  38.9910000000
O	  12.8962000000	  53.4628000000	  39.0938000000
O	  11.6714000000	  51.6613000000	  40.1907000000
C	  13.8516000000	  51.0374000000	  38.7281000000
F	  14.2398000000	  50.9380000000	  37.4486000000
F	  13.5087000000	  49.8397000000	  39.1456000000
F	  14.9150000000	  51.2982000000	  39.4538000000
S	  11.0521000000	  53.1603000000	  36.8393000000
O	  12.1066000000	  54.1105000000	  36.5106000000
O	   9.7094900000	  53.6093000000	  37.0969000000
C	  10.7803000000	  52.1885000000	  35.2377000000
F	  11.8430000000	  51.4539000000	  34.9820000000
F	   9.7201300000	  51.4041000000	  35.3715000000
F	  10.6046000000	  52.9402000000	  34.0923000000
N	   9.6330400000	  56.8355000000	  39.6375000000
S	  10.8319000000	  55.9107000000	  39.8080000000
O	  10.3899000000	  54.5554000000	  39.9279000000
O	  11.9716000000	  56.2096000000	  38.9903000000
C	  11.4333000000	  56.4189000000	  41.4706000000
F	  12.6842000000	  56.2288000000	  41.6849000000
F	  10.7365000000	  55.9190000000	  42.4550000000
F	  11.3612000000	  57.7216000000	  41.5413000000
S	   8.0741800000	  56.4541000000	  39.4240000000
O	   7.8274600000	  55.2107000000	  38.7207000000
O	   7.3240000000	  57.5572000000	  38.8766000000
C	   7.5255000000	  56.2413000000	  41.1675000000
F	   6.2047000000	  56.0398000000	  41.1207000000
F	   8.0575000000	  55.1024000000	  41.6736000000
F	   7.8386500000	  57.2607000000	  41.9877000000
S	  15.3920000000	  55.3302000000	  25.6864000000
S	  13.4890000000	  55.3906000000	  26.5575000000
S	  13.6211000000	  56.1157000000	  28.5271000000
S	  13.2358000000	  55.0042000000	  33.3886000000
S	  13.3498000000	  56.9558000000	  34.1573000000
S	  13.4932000000	  57.0268000000	  36.2503000000
S	  12.3139000000	  54.8396000000	  31.5862000000
S	  13.6568000000	  54.6616000000	  29.9235000000
