57

Li	   3.9590900000	  18.0406000000	  15.7500000000
O	   2.5134700000	  17.9088000000	  16.8838000000
O	   0.4337881559	  17.5610000000	  17.5080000000
C	   2.5243000000	  17.1297000000	  18.0639000000
C	   1.2129000000	  16.3835000000	  17.9474000000
C	   1.2699500000	  18.4994000000	  17.0890000000
H	   3.3369600000	  16.4438000000	  18.0323000000
H	   2.5863200000	  17.8379000000	  18.8796000000
H	   1.2662600000	  15.5946000000	  17.2337000000
H	   1.0264881559	  15.8045000000	  18.8774000000
H	   1.3356000000	  19.3869000000	  17.6481000000
H	   0.8724881559	  18.8368000000	  16.1201000000
N	   2.9083500000	  14.6974000000	  14.2948000000
S	   2.1370400000	  15.8749000000	  13.6440000000
O	   2.2671400000	  17.1121000000	  14.3258000000
O	   2.2759400000	  15.9230000000	  12.2047000000
C	   0.3489881559	  15.4654000000	  13.8336000000
F	   0.1410881559	  14.9444000000	  15.0198000000
F	   0.0780881559	  14.5373000000	  12.9490000000
F	  -0.4176118441	  16.4852000000	  13.6082000000
S	   3.9055600000	  14.8870000000	  15.5426000000
O	   3.4059900000	  14.3004000000	  16.7662000000
O	   4.5976700000	  16.1730000000	  15.6725000000
C	   5.2030900000	  13.5521000000	  15.1509000000
F	   4.7668500000	  12.3276000000	  15.3118000000
F	   5.7453100000	  13.6483000000	  13.9424000000
F	   6.2536400000	  13.6963000000	  15.9487000000
N	   4.6814400000	  21.1974000000	  18.2631000000
S	   5.4758900000	  20.5723000000	  17.0546000000
O	   4.9823000000	  19.2975000000	  16.6014000000
O	   5.8922300000	  21.4638000000	  16.0345000000
C	   7.0564100000	  20.1409000000	  17.8934000000
F	   8.0139200000	  19.7924000000	  17.0142000000
F	   6.9807200000	  19.1128000000	  18.7049000000
F	   7.5108600000	  21.1242000000	  18.6170000000
S	   3.9557000000	  22.6153000000	  18.2333000000
O	   2.5703700000	  22.5853000000	  17.9115000000
O	   4.7202500000	  23.6461000000	  17.6191000000
C	   3.9338800000	  23.1018000000	  19.9664000000
F	   3.2894600000	  22.1696000000	  20.7305000000
F	   5.1393900000	  23.2683000000	  20.4269000000
F	   3.3458100000	  24.2491000000	  20.1811000000
N	   4.8405300000	  20.4920000000	  11.9992000000
S	   4.9751800000	  19.0154000000	  12.5997000000
O	   4.4975400000	  18.9361000000	  13.9312000000
O	   4.6403100000	  17.9064000000	  11.7042000000
C	   6.7711300000	  18.9107000000	  12.8024000000
F	   7.4157800000	  19.2357000000	  11.6786000000
F	   7.0976300000	  17.6753000000	  13.0964000000
F	   7.1603000000	  19.6293000000	  13.8269000000
S	   4.4388900000	  20.9432000000	  10.5390000000
O	   3.1410500000	  21.5683000000	  10.3391000000
O	   4.9205000000	  19.9899000000	   9.5537600000
C	   5.5049200000	  22.3943000000	  10.3800000000
F	   5.3066500000	  23.0004000000	   9.2433600000
F	   5.2011000000	  23.2976000000	  11.3041000000
F	   6.8310700000	  22.1201000000	  10.4496000000
