38

Li	   7.2383000000	  43.5327000000	  35.5999000000
O	   8.7463900000	  44.2985000000	  35.1411000000
O	  10.7767000000	  44.4140000000	  34.0637000000
C	   9.7595700000	  43.9803000000	  36.0132000000
C	  11.0518000000	  44.6089000000	  35.4472000000
C	   9.3917100000	  44.7773000000	  33.9861000000
H	   9.5392800000	  44.3038000000	  37.0070000000
H	   9.8783700000	  42.9187000000	  35.9331000000
H	  11.2208000000	  45.6685000000	  35.6975000000
H	  11.8585000000	  44.1078000000	  35.8839000000
H	   8.8519700000	  44.3813000000	  33.1338000000
H	   9.2603300000	  45.8683000000	  33.9541000000
O	   7.2433300000	  41.7784000000	  34.7588000000
O	   6.9926200000	  39.5287000000	  34.7356000000
C	   5.8967400000	  41.5547000000	  34.2988000000
C	   5.6787200000	  40.0723000000	  34.6336000000
C	   7.8785800000	  40.5890000000	  34.4596000000
H	   5.1069700000	  42.1976000000	  34.7923000000
H	   5.8115600000	  41.7833000000	  33.2512000000
H	   5.1008100000	  39.8069000000	  35.5932000000
H	   5.1333700000	  39.5327000000	  33.7843000000
H	   8.0983900000	  40.5372000000	  33.3780000000
H	   8.7918700000	  40.6061000000	  34.9808000000
N	   4.4586500000	  46.5144000000	  35.3630000000
S	   4.7045700000	  45.5084000000	  36.5388000000
O	   5.8743400000	  44.6971000000	  36.4081000000
O	   4.4222500000	  46.0611000000	  37.8240000000
C	   3.3953700000	  44.2682000000	  36.1837000000
F	   3.4655900000	  43.7658000000	  34.9971000000
F	   2.2293000000	  44.8874000000	  36.3192000000
F	   3.4940300000	  43.2333000000	  37.0012000000
S	   5.1060900000	  46.4160000000	  33.9392000000
O	   4.4397700000	  45.7161000000	  32.8316000000
O	   6.5955200000	  46.2490000000	  33.9684000000
C	   4.9809400000	  48.1705000000	  33.4506000000
F	   5.4376700000	  48.9418000000	  34.3629000000
F	   5.6887500000	  48.4804000000	  32.4134000000
F	   3.7624000000	  48.4620000000	  33.1676000000
