42

Li	  51.7606000000	  13.8139000000	  57.0428000000
O	  54.5518000000	  11.6681000000	  54.8125000000
O	  53.1663000000	  12.3497000000	  56.3807000000
C	  53.6378000000	  10.5707000000	  55.0297000000
C	  52.7958000000	  10.9290000000	  56.2276000000
C	  54.4520000000	  12.3354000000	  56.0000000000
H	  52.9849000000	  10.5363000000	  54.1281000000
H	  54.0307000000	   9.5214300000	  55.1123000000
H	  51.7679000000	  10.7155000000	  56.0676000000
H	  53.1605000000	  10.2792000000	  57.1084000000
H	  55.0493000000	  11.7984000000	  56.7733000000
H	  54.7998000000	  13.3740000000	  55.9170000000
O	  50.7688000000	  11.6506000000	  60.5378487854
O	  51.3335000000	  12.9453000000	  58.8156000000
C	  50.3316000000	  12.9479000000	  60.9381787854
C	  50.8543000000	  13.8181000000	  59.8044087854
C	  51.6110000000	  11.7796000000	  59.4575887854
H	  49.2140000000	  12.9304000000	  61.0821687854
H	  50.6764000000	  13.0812000000	  61.9205287854
H	  50.0412000000	  14.4445000000	  59.3977487854
H	  51.6452000000	  14.4522000000	  60.1414087854
H	  52.6567000000	  11.7264000000	  59.7338787854
H	  51.4297000000	  10.8664000000	  58.8640000000
O	  48.8676000000	  13.9255000000	  53.9318000000
O	  50.3468000000	  13.1803000000	  55.5599000000
C	  49.4494000000	  12.7072000000	  53.4293000000
C	  50.4934000000	  12.3187000000	  54.4766000000
C	  49.0649000000	  13.8351000000	  55.3019000000
H	  48.7929000000	  11.8680000000	  53.3883000000
H	  49.7408000000	  12.8535000000	  52.3932000000
H	  50.3138000000	  11.3577000000	  54.9190000000
H	  51.4974000000	  12.1946000000	  54.0027000000
H	  48.9480000000	  14.7477000000	  55.8570000000
H	  48.2410000000	  13.2628000000	  55.7219000000
S	  51.1699000000	  15.8155000000	  56.9472000000
S	  53.3275000000	  15.5090000000	  56.7439000000
S	  54.3302000000	  15.2207000000	  58.5972000000
S	  56.6052000000	  16.8852000000	  62.5137687854
S	  56.9211000000	  17.9268000000	  64.2549987854
S	  57.9855000000	  19.6881000000	  63.9155587854
S	  54.6906000000	  17.0334000000	  61.5951387854
S	  54.8468000000	  17.0868000000	  59.5126687854
