34

Li	   4.4808700000	  13.1873000000	   2.5570900000
O	   4.8844700000	  15.1352000000	  -1.0813387854
O	   4.6337200000	  14.0385000000	   0.7894612146
C	   3.8514500000	  14.2398000000	  -1.3155387854
C	   3.5487800000	  13.5799000000	  -0.0186387854
C	   5.6034700000	  14.5733000000	  -0.0624387854
H	   3.0318600000	  14.8162000000	  -1.6836387854
H	   4.2033600000	  13.5639000000	  -2.1072387854
H	   2.7229700000	  14.0096000000	   0.4276612146
H	   3.4543300000	  12.4651000000	   0.0285612146
H	   6.2210900000	  13.7015000000	  -0.4676387854
H	   6.1490800000	  15.2288000000	   0.5613612146
F	   3.8209400000	  10.0152000000	   1.4313400000
F	   5.2453900000	   8.9314400000	   0.2967612146
F	   4.8796200000	  10.8681000000	  -0.3285387854
F	   6.4877700000	  16.7862000000	   2.3542400000
F	   4.3972300000	  16.6446000000	   2.4862100000
F	   5.5153200000	  17.8814000000	   3.9303900000
O	   5.8476800000	  11.9192000000	   2.3080400000
O	   5.6661500000	  14.1850000000	   3.5676200000
C	   6.8766700000	  12.2169000000	   3.2063700000
C	   7.0013300000	  13.6980000000	   3.4009900000
C	   6.1263900000	  10.6899000000	   1.6562800000
C	   5.5881200000	  15.4258000000	   4.2122900000
C	   4.9709200000	  10.1531000000	   0.7776612146
C	   5.5227600000	  16.7154000000	   3.2429000000
H	   6.7187800000	  11.6965000000	   4.1479500000
H	   7.9003200000	  11.8246000000	   2.9555600000
H	   7.6545100000	  13.9174000000	   4.2852600000
H	   7.4858500000	  14.1995000000	   2.5242700000
H	   6.4148300000	   9.9638600000	   2.4726900000
H	   6.9423300000	  10.7170000000	   0.9872612146
H	   4.6923800000	  15.5626000000	   4.7359800000
H	   6.4426100000	  15.5076000000	   4.9806500000
