46

Li	  31.1467000000	  48.8639000000	   7.0437700000
F	  28.2974000000	  50.5912000000	   5.0755900000
F	  29.0004000000	  50.6818000000	   7.1347500000
F	  26.8929000000	  50.3181000000	   6.6494200000
F	  34.3439000000	  45.5455000000	   5.9888700000
F	  35.0345000000	  45.8700000000	   8.0312200000
F	  33.0727000000	  45.0313000000	   7.6955400000
O	  29.8671000000	  48.3265000000	   5.8224000000
O	  32.0209000000	  47.2802000000	   6.8489600000
C	  30.0697000000	  46.9459000000	   5.5843500000
C	  31.6283000000	  46.7708000000	   5.5726100000
C	  28.5117000000	  48.5276000000	   6.2062300000
C	  33.4217000000	  47.2628000000	   7.1083900000
C	  28.2025000000	  50.0809000000	   6.2914800000
C	  33.9788000000	  45.8530000000	   7.2067800000
H	  29.6452000000	  46.2763000000	   6.3394800000
H	  29.6864000000	  46.6088000000	   4.6054700000
H	  31.9166000000	  45.7528000000	   5.4314100000
H	  32.1010000000	  47.4075000000	   4.7556800000
H	  28.3864000000	  47.9610000000	   7.1480100000
H	  27.9794000000	  47.9913000000	   5.4244100000
H	  34.0233000000	  47.8712000000	   6.4302500000
H	  33.4281000000	  47.7076000000	   8.1181200000
N	  32.1115000000	  52.6561000000	   5.5219100000
S	  31.4154000000	  54.0506000000	   5.2048800000
O	  32.3225000000	  55.1893000000	   5.3108700000
O	  30.5536000000	  54.0574000000	   4.0639400000
C	  30.2800000000	  54.3062000000	   6.6073000000
F	  29.2752000000	  53.4226000000	   6.6160500000
F	  29.8525000000	  55.5719000000	   6.5521900000
F	  31.0231000000	  54.2749000000	   7.7075400000
S	  31.9468000000	  51.2313000000	   4.8433700000
O	  31.1207000000	  51.1935000000	   3.6821500000
O	  31.9273000000	  50.1510000000	   5.7826300000
C	  33.6054000000	  51.1384000000	   4.1932400000
F	  33.9722000000	  52.1984000000	   3.4455400000
F	  34.4895000000	  51.0352000000	   5.1319400000
F	  33.7602000000	  49.9336000000	   3.4835100000
S	  31.6780000000	  49.6045000000	   8.9393500000
S	  30.0976000000	  48.3349000000	   9.2277100000
S	  29.6514000000	  47.6820000000	  11.2004000000
S	  26.3320000000	  51.4912000000	  12.4600000000
S	  25.5942000000	  52.8296000000	  13.9062000000
S	  23.8494000000	  53.8224000000	  13.2174000000
S	  27.8547000000	  50.1708000000	  13.2044000000
S	  27.7843000000	  48.5444000000	  11.8422000000
