39

Li	  33.7497000000	  28.1303000000	  30.2389000000
O	  35.0460000000	  27.4822000000	  28.8812000000
O	  35.7394000000	  26.2318000000	  27.1198000000
C	  36.4376000000	  27.7131000000	  28.7044000000
C	  36.6010000000	  27.3176000000	  27.2623000000
C	  34.7596000000	  26.3060000000	  28.1810000000
H	  36.7497000000	  28.7602000000	  28.8343000000
H	  37.0391000000	  27.1191000000	  29.3485000000
H	  36.2284000000	  28.1678000000	  26.6430000000
H	  37.5773000000	  27.0265000000	  26.9194000000
H	  34.9868000000	  25.3646000000	  28.7315000000
H	  33.6667000000	  26.3756000000	  27.9101000000
O	  34.7267000000	  29.9739000000	  29.7466000000
O	  35.9788000000	  31.6498000000	  30.6130000000
C	  34.6914000000	  31.0345000000	  28.7962000000
C	  35.5378000000	  32.1999000000	  29.3978000000
C	  35.1537000000	  30.5870000000	  30.9315000000
H	  35.1596000000	  30.6683000000	  27.8909000000
H	  33.6782000000	  31.3189000000	  28.5800000000
H	  36.3892000000	  32.3389000000	  28.8106000000
H	  35.0391000000	  33.2204000000	  29.4191000000
H	  34.2480000000	  30.9731000000	  31.3719000000
H	  35.6345000000	  29.9612000000	  31.6819000000
S	  28.9995000000	  38.0578000000	  34.9848000000
S	  28.1810000000	  36.1679000000	  34.4705000000
S	  29.6496000000	  34.8372000000	  33.6904000000
S	  30.9989000000	  31.7919000000	  29.9273000000
S	  30.9837000000	  29.8970000000	  30.8165000000
S	  31.8632000000	  28.5082000000	  29.4338000000
S	  31.6445000000	  33.3847000000	  31.2720000000
S	  30.1336000000	  34.8252000000	  31.6733000000
S	  40.3002000000	  28.8699000000	  28.4967000000
S	  39.7319000000	  29.5702000000	  30.4817000000
S	  38.0825000000	  28.6920000000	  31.2909000000
S	  35.3279000000	  25.2638000000	  32.6516000000
S	  33.9646000000	  26.3847000000	  31.5788000000
S	  33.6177000000	  28.2405000000	  32.5563000000
S	  37.2665000000	  25.3145000000	  31.7018000000
S	  38.3052000000	  26.9394000000	  32.4270000000
