49

Li	  43.3424000000	  38.8218000000	  37.3461000000
O	  41.5075000000	  39.0160000000	  37.7710000000
O	  40.1463000000	  40.7604000000	  37.7840000000
C	  40.3809000000	  38.6822000000	  36.9316000000
C	  39.5062000000	  39.9472000000	  36.9691000000
C	  40.9760000000	  40.0431000000	  38.5957000000
H	  40.7148000000	  38.2886000000	  35.9813000000
H	  39.7967000000	  37.8924000000	  37.3353000000
H	  39.4542000000	  40.2933000000	  35.9358000000
H	  38.4965000000	  39.7419000000	  37.3363000000
H	  40.4008000000	  39.6330000000	  39.4055000000
H	  41.7097000000	  40.6896000000	  38.9329000000
F	  47.3469000000	  35.3595000000	  34.6609000000
F	  45.5799000000	  36.1344000000	  33.9061000000
F	  45.5382000000	  34.1409000000	  34.8253000000
F	  42.1717000000	  42.9257000000	  35.1203000000
F	  43.0690000000	  42.2257000000	  37.0437000000
F	  44.3157000000	  42.5770000000	  35.2861000000
O	  44.8780000000	  37.2179000000	  35.9773000000
O	  43.7891000000	  39.7699000000	  35.9053000000
C	  45.7270000000	  38.3221000000	  35.7073000000
C	  44.9996000000	  39.5518000000	  35.1455000000
C	  45.5340000000	  35.9735000000	  36.2260000000
C	  42.9174000000	  40.7310000000	  35.3049000000
C	  45.9958000000	  35.3702000000	  34.8771000000
C	  43.1101000000	  42.1780000000	  35.7172000000
H	  46.2609000000	  38.6956000000	  36.6154000000
H	  46.5033000000	  38.1345000000	  34.9878000000
H	  45.7256000000	  40.3940000000	  35.2487000000
H	  44.7941000000	  39.4406000000	  34.1308000000
H	  44.8005000000	  35.2649000000	  36.6809000000
H	  46.3968000000	  35.9997000000	  36.8772000000
H	  43.0129000000	  40.7354000000	  34.2269000000
H	  41.9264000000	  40.5023000000	  35.4266000000
N	  44.8509000000	  38.0652000000	  40.6168000000
S	  44.6198000000	  39.4907000000	  40.0614000000
O	  44.7660000000	  39.5004000000	  38.6335000000
O	  43.4772000000	  40.1884000000	  40.6269000000
C	  46.0162000000	  40.4941000000	  40.7487000000
F	  46.3736000000	  40.1117000000	  41.9695000000
F	  45.6954000000	  41.7829000000	  40.7782000000
F	  47.1550000000	  40.4911000000	  40.0151000000
S	  44.5539000000	  36.7382000000	  39.8820000000
O	  45.7350000000	  36.0994000000	  39.4314000000
O	  43.4440000000	  36.7582000000	  39.0003000000
C	  43.8683000000	  35.7522000000	  41.3053000000
F	  44.7505000000	  35.5476000000	  42.3004000000
F	  42.7904000000	  36.4291000000	  41.7484000000
F	  43.4971000000	  34.5388000000	  40.9566000000
