28

Li	  34.3653000000	  33.9742000000	  32.7621000000
O	  32.3826000000	  36.4754000000	  30.0903000000
O	  33.6235000000	  34.9408000000	  31.1808000000
C	  32.9574000000	  35.5562000000	  29.1896000000
C	  33.2615000000	  34.3278000000	  29.9338000000
C	  33.0106000000	  36.1886000000	  31.2881000000
H	  32.3617000000	  35.4296000000	  28.3415000000
H	  33.9141000000	  35.9659000000	  28.7771000000
H	  32.4780000000	  33.6916000000	  30.1970000000
H	  34.1381000000	  33.8568000000	  29.4665000000
H	  33.8062000000	  36.9796000000	  31.4319000000
H	  32.3478000000	  36.2087000000	  32.2055000000
S	  24.7770000000	  32.3235000000	  37.0907000000
S	  25.9736000000	  31.5776000000	  35.4470000000
S	  26.1098000000	  33.1307000000	  34.0013000000
S	  30.8753000000	  34.6427000000	  34.2416000000
S	  31.2781000000	  32.6314000000	  33.9901000000
S	  33.1001000000	  32.2447000000	  32.9287000000
S	  29.0309000000	  34.8806000000	  33.2841000000
S	  27.4120000000	  34.6003000000	  34.5856000000
S	  35.4339000000	  34.3695000000	  24.9005000000
S	  36.0013000000	  34.6220000000	  26.9112000000
S	  37.5878000000	  33.4302000000	  27.5505000000
S	  36.8510000000	  32.7112000000	  32.6276000000
S	  36.3936000000	  34.7470000000	  33.0774000000
S	  34.8434000000	  34.9854000000	  34.5185000000
S	  38.0445000000	  32.3670000000	  30.8972000000
S	  36.9457000000	  32.2126000000	  29.1244000000
