50

Li	  47.7873000000	  19.0763000000	  54.3395000000
O	  49.5614000000	  22.2980000000	  54.7211000000
O	  48.5890000000	  20.4079000000	  55.3401000000
C	  50.6525000000	  21.4015000000	  54.8288000000
C	  50.0009000000	  20.2082000000	  55.4268000000
C	  48.5098000000	  21.7711000000	  55.4856000000
H	  51.0371000000	  21.2031000000	  53.8842000000
H	  51.4375000000	  21.6372000000	  55.5151000000
H	  50.2930000000	  19.2623000000	  54.8457000000
H	  50.2549000000	  19.9832000000	  56.4596000000
H	  48.6267000000	  22.2320000000	  56.4995000000
H	  47.5748000000	  22.1792000000	  55.1010000000
N	  50.3693000000	  15.0882000000	  54.4365000000
S	  49.9586000000	  14.0358000000	  53.4785000000
O	  48.9348000000	  13.1400000000	  53.9013000000
O	  49.8449000000	  14.5756000000	  52.1378000000
C	  51.4194000000	  12.9342000000	  53.4535000000
F	  51.6924000000	  12.4324000000	  54.6260000000
F	  52.4753000000	  13.5646000000	  53.0125000000
F	  51.3010000000	  11.9101000000	  52.6453000000
S	  49.4345000000	  15.8871000000	  55.4996000000
O	  48.5068000000	  15.1956000000	  56.3065000000
O	  48.9971000000	  17.1172000000	  54.9715000000
C	  50.7099000000	  16.3893000000	  56.6905000000
F	  51.3584000000	  15.2571000000	  57.1357000000
F	  51.5803000000	  17.2759000000	  56.2256000000
F	  50.1878000000	  16.8806000000	  57.8124000000
N	  46.1358000000	  16.9722000000	  57.8561000000
S	  45.7535000000	  18.3358000000	  57.1787000000
O	  46.5749000000	  18.6270000000	  55.9917000000
O	  44.3255000000	  18.6788000000	  57.1498000000
C	  46.3583000000	  19.5737000000	  58.3729000000
F	  45.6537000000	  19.6727000000	  59.5080248377
F	  46.2675000000	  20.7603000000	  57.8351000000
F	  47.6048000000	  19.4003000000	  58.7379000000
S	  45.2119000000	  15.8454000000	  58.3674000000
O	  45.4274000000	  14.5552000000	  57.7301000000
O	  43.8540000000	  16.1778000000	  58.6852000000
C	  45.7730000000	  15.5473000000	  60.1363948377
F	  45.0856000000	  16.2001000000	  61.0330848377
F	  45.8296000000	  14.2284000000	  60.4540048377
F	  47.0860000000	  15.8651000000	  60.2222948377
S	  40.8753000000	  17.8054000000	  56.5342000000
S	  42.1555000000	  16.3045000000	  55.9009000000
S	  42.7769000000	  16.4777000000	  53.9180000000
S	  47.0290000000	  16.4257000000	  52.4644000000
S	  46.6227000000	  18.4497000000	  52.5041000000
S	  48.4629000000	  19.5893000000	  52.3991000000
S	  46.0451000000	  15.4576000000	  54.0454000000
S	  44.1149000000	  14.8645000000	  53.5226000000
