28

Li	  11.2033000000	  39.7729000000	   1.1210700000
O	  12.1262000000	  41.3618000000	   1.5832800000
O	  13.5299000000	  43.0521000000	   1.0179800000
C	  12.7499000000	  41.8197000000	   2.7256600000
C	  14.0208000000	  42.5091000000	   2.2027100000
C	  12.8805000000	  41.9573000000	   0.5373551623
H	  12.1078000000	  42.4936000000	   3.2596400000
H	  12.9829000000	  41.0818000000	   3.5269600000
H	  14.5561000000	  43.2994000000	   2.7970700000
H	  14.6227000000	  41.6736000000	   2.0534900000
H	  13.6483000000	  41.3846000000	   0.0715551623
H	  12.2197000000	  42.3589000000	  -0.1661448377
S	   9.7565900000	  40.1739000000	  -0.5830448377
S	  10.4269000000	  39.9872000000	  -2.5877448377
S	   9.9412700000	  38.1198000000	  -3.4712448377
S	   8.0635600000	  38.2415000000	  -8.0715448377
S	   6.6515300000	  37.3393000000	  -9.3384448377
S	   4.8562000000	  38.4367000000	  -9.2480448377
S	   8.2119600000	  36.9633000000	  -6.4259448377
S	   8.0581800000	  38.0470000000	  -4.5457448377
S	  17.7781000000	  32.3368000000	   0.1252551623
S	  18.6323000000	  33.5799000000	  -1.2809448377
S	  17.3361000000	  35.2012000000	  -1.5653448377
S	  14.6598000000	  38.6322000000	   0.3661551623
S	  12.7418000000	  37.7834000000	  -0.0055448377
S	  11.4980000000	  37.8975000000	   1.7962100000
S	  16.2557000000	  37.2827000000	   0.9966650000
S	  17.7169000000	  36.9420000000	  -0.4283448377
