38

Li	  24.1077000000	  11.8559000000	   5.6001700000
O	  25.4159000000	  13.1283000000	   6.0094000000
O	  27.5809000000	  13.3111000000	   6.1609000000
C	  25.7847000000	  14.4583000000	   5.4882200000
C	  27.2093000000	  14.6638000000	   5.9227400000
C	  26.5157000000	  12.7672000000	   6.7317700000
H	  25.6709000000	  14.5585000000	   4.3592600000
H	  25.2531000000	  15.2609000000	   5.9460300000
H	  27.8133000000	  15.1150000000	   5.2146500000
H	  27.1877000000	  15.2302000000	   6.8383100000
H	  26.3032000000	  13.1400000000	   7.7571700000
H	  26.6268000000	  11.6908000000	   6.6482900000
O	  22.6667000000	   9.3747800000	   6.6147700000
O	  24.2447000000	  10.8466000000	   7.0994600000
C	  22.1923000000	  10.0692000000	   7.7913800000
C	  23.1740000000	  11.2717000000	   7.9301400000
C	  24.0537000000	   9.5060600000	   6.6523800000
H	  21.1840000000	  10.3711000000	   7.7615800000
H	  22.3717000000	   9.3366400000	   8.5388500000
H	  22.7898000000	  12.2658000000	   7.6791900000
H	  23.4967000000	  11.4567000000	   8.9746800000
H	  24.4866000000	   8.8876300000	   7.5031000000
H	  24.5257000000	   9.2394900000	   5.7621300000
N	  23.2101000000	  10.7315000000	   2.4549700000
S	  24.7624000000	  10.6572000000	   2.6771300000
O	  25.1851000000	  10.8579000000	   4.0625400000
O	  25.4137000000	   9.5310100000	   2.0063600000
C	  25.4960000000	  12.0506000000	   1.7574900000
F	  26.7816000000	  12.0777000000	   1.8766200000
F	  25.0851000000	  13.1832000000	   2.2731400000
F	  25.2001000000	  12.0481000000	   0.4711551623
S	  22.1155000000	  11.4273000000	   3.4147200000
O	  22.6729000000	  12.3724000000	   4.3164200000
O	  21.1253000000	  10.5205000000	   3.9978300000
C	  21.2208000000	  12.3829000000	   2.1302200000
F	  22.1223000000	  13.1321000000	   1.4660400000
F	  20.7098000000	  11.6053000000	   1.1711400000
F	  20.3593000000	  13.2474000000	   2.6335000000
