43

Li	   8.8508600000	  55.8308000000	   9.7584300000
O	   8.7668600000	  53.9964000000	   8.8763900000
O	   8.9938200000	  51.9995000000	   7.8048400000
C	   7.4449100000	  53.4977000000	   8.6839500000
C	   7.7464800000	  52.0201000000	   8.4542300000
C	   9.6880000000	  53.0098000000	   8.4487200000
H	   6.7219400000	  53.6571000000	   9.4924500000
H	   6.9999900000	  53.8898000000	   7.7382400000
H	   7.6475900000	  51.5069000000	   9.4165400000
H	   6.8781100000	  51.6518000000	   7.7898300000
H	  10.3923000000	  53.3293000000	   7.7193800000
H	  10.3072000000	  52.5483000000	   9.2408300000
N	  11.8061000000	  56.0672000000	  13.0207000000
S	  11.1269000000	  54.8878000000	  12.1494000000
O	  10.9112000000	  53.6528000000	  12.8317000000
O	  10.1628000000	  55.4759000000	  11.1914000000
C	  12.4546000000	  54.4435000000	  10.9839000000
F	  13.0498000000	  55.4530000000	  10.3160000000
F	  12.0484000000	  53.6075000000	  10.0445000000
F	  13.4145000000	  53.7752000000	  11.5821000000
S	  11.7489000000	  56.1065000000	  14.6261000000
O	  12.8826000000	  56.7500000000	  15.2885000000
O	  11.3227000000	  54.8399000000	  15.2118000000
C	  10.3947000000	  57.2312000000	  14.8540000000
F	  10.1320000000	  57.3769000000	  16.1845000000
F	  10.7062000000	  58.4464000000	  14.4229000000
F	   9.2461100000	  56.7816000000	  14.3553000000
S	  10.2432000000	  56.6953000000	   8.2440100000
S	   9.1490100000	  56.6317000000	   6.4362900000
S	  10.0475000000	  55.2121000000	   5.0446600000
S	  11.7338000000	  53.4920000000	   0.5935551623
S	  11.8175000000	  51.5641000000	   1.4121200000
S	  10.4941000000	  50.2503000000	   0.5124551623
S	  11.9896000000	  54.9679000000	   2.0301800000
S	  10.3681000000	  55.7836000000	   2.9933200000
S	   7.0012300000	  56.3795000000	  10.1768000000
S	   8.2187000000	  57.8700000000	  10.9274000000
S	   7.2915400000	  59.7237038999	  11.1458000000
S	   8.9152800000	  63.7501638999	  13.6526000000
S	  10.3190000000	  64.6181738999	  15.0384000000
S	   9.3090400000	  65.4282838999	  16.6941000000
S	   9.4240900000	  61.8072238999	  12.9274000000
S	   8.5761000000	  61.3856938999	  11.0194000000
