50

Li	  46.4500000000	  46.6617000000	  51.2731000000
O	  44.4966000000	  49.0910000000	  48.5498000000
O	  45.3689000000	  48.0063000000	  50.2056000000
C	  44.5442000000	  50.0191000000	  49.5829000000
C	  45.6368000000	  49.3541000000	  50.3754000000
C	  44.4152000000	  47.9081000000	  49.2369000000
H	  44.8991000000	  51.0103000000	  49.3137000000
H	  43.5298000000	  50.0651000000	  50.1187000000
H	  46.5730000000	  49.5485000000	  49.9287000000
H	  45.6581000000	  49.5650000000	  51.4779000000
H	  43.4924000000	  47.8475000000	  49.7672000000
H	  44.6474000000	  47.0029000000	  48.6651000000
N	  45.1060000000	  42.6461000000	  51.0120000000
S	  44.2835000000	  41.3043000000	  51.0938000000
O	  43.3047000000	  41.2720000000	  52.1395000000
O	  43.9047000000	  40.8913000000	  49.7375000000
C	  45.5672000000	  40.1156000000	  51.6400000000
F	  46.0198000000	  40.3516000000	  52.8398000000
F	  46.6834000000	  40.0580000000	  50.8697000000
F	  45.1784000000	  38.8792000000	  51.6920000000
S	  44.4890000000	  44.1063000000	  51.0045000000
O	  45.4353000000	  45.0835000000	  50.5324000000
O	  43.8529000000	  44.3911000000	  52.2274000000
C	  43.2146000000	  44.1368000000	  49.7215000000
F	  42.4590000000	  45.2874000000	  49.7054000000
F	  43.6810000000	  43.9390000000	  48.5205000000
F	  42.2680000000	  43.2021000000	  49.8751000000
N	  48.6291000000	  46.3364000000	  47.5680000000
S	  48.9666000000	  46.2623000000	  49.0352000000
O	  47.8093000000	  46.3647000000	  49.8539000000
O	  50.0045000000	  45.2759000000	  49.4173000000
C	  49.7486000000	  47.8686000000	  49.2926000000
F	  49.0371000000	  48.8648000000	  48.6843000000
F	  50.9183000000	  47.9569000000	  48.6670000000
F	  49.8832000000	  48.1764000000	  50.5467000000
S	  49.0826000000	  45.3706000000	  46.4084000000
O	  47.9980000000	  44.9038000000	  45.5690000000
O	  50.0506000000	  44.3334000000	  46.8015000000
C	  50.0308000000	  46.4113000000	  45.3019000000
F	  50.4727000000	  45.6696000000	  44.3142000000
F	  49.2289000000	  47.4067000000	  44.8248000000
F	  51.0632000000	  46.9460000000	  45.8245000000
S	  45.9677000000	  46.8387000000	  53.2681000000
S	  47.8957000000	  45.9834000000	  53.0968000000
S	  47.8627000000	  44.0005000000	  52.7384000000
S	  44.8295000000	  43.9104000000	  56.5580000000
S	  44.1503000000	  45.8378000000	  56.2281000000
S	  45.5753000000	  47.3441000000	  56.8258000000
S	  45.4188000000	  42.8139000000	  54.8725000000
S	  47.4797000000	  42.9119000000	  54.5563000000
