52

Li	  52.4801000000	  24.6143000000	  38.9477000000
O	  51.8451000000	  20.4214000000	  39.0695000000
O	  51.9948000000	  22.6951000000	  39.2827000000
C	  50.9126000000	  20.7925000000	  40.0099000000
C	  50.6848000000	  22.2986000000	  39.5969000000
C	  52.7530000000	  21.4879000000	  39.3243000000
H	  49.9675000000	  20.2743000000	  39.7778000000
H	  51.2423000000	  20.6197000000	  41.0291000000
H	  50.0187000000	  22.4325000000	  38.7528000000
H	  50.3231000000	  22.8414000000	  40.4782000000
H	  53.2121000000	  21.3478000000	  40.3183000000
H	  53.5540000000	  21.5002000000	  38.6569000000
O	  50.9897000000	  25.7297000000	  38.8016000000
O	  49.6651000000	  27.3402000000	  38.0282000000
C	  49.7239000000	  25.4923000000	  39.3886000000
C	  49.1867000000	  26.8987000000	  39.2775000000
C	  50.6766000000	  26.4869000000	  37.6908000000
H	  49.0753000000	  24.8954000000	  38.8241000000
H	  49.6240000000	  25.1217000000	  40.4259000000
H	  48.1276000000	  26.9540000000	  39.3148000000
H	  49.5371000000	  27.5821000000	  40.0412000000
H	  51.5412000000	  26.9723000000	  37.1079000000
H	  50.3093000000	  25.6960000000	  36.9623000000
O	  53.3744000000	  25.2830000000	  40.6428000000
O	  51.7476000000	  26.1488000000	  41.8784000000
C	  53.4972000000	  26.7604000000	  40.6754000000
C	  52.6920000000	  27.1378000000	  41.9135000000
C	  52.4922000000	  25.0265000000	  41.6838000000
H	  54.5187000000	  27.0663000000	  40.7350000000
H	  53.0452000000	  27.2046000000	  39.7923000000
H	  53.3142000000	  27.1533000000	  42.8367000000
H	  52.2046000000	  28.0511000000	  41.7117000000
H	  51.8635000000	  24.1976000000	  41.4508000000
H	  53.0133000000	  24.7514000000	  42.6090000000
O	  53.1340000000	  24.8389000000	  37.1767000000
C	  51.5946000000	  23.3430000000	  35.7720000000
C	  53.0375000000	  23.6701000000	  36.2552000000
C	  54.3677000000	  25.4673000000	  37.2177000000
C	  51.4753000000	  21.9566000000	  35.1747000000
C	  55.3459000000	  24.5868000000	  37.9545000000
H	  50.8684000000	  23.4921000000	  36.5880000000
H	  51.2299000000	  24.1486000000	  35.2105000000
H	  53.6424000000	  23.8674000000	  35.3973000000
H	  53.4938000000	  22.9039000000	  36.7962000000
H	  54.7262000000	  25.7826000000	  36.2372000000
H	  54.1371000000	  26.4405000000	  37.6883000000
H	  51.9505000000	  21.1399000000	  35.7891000000
H	  50.4226000000	  21.6919000000	  35.0490000000
H	  52.1532000000	  21.8706000000	  34.3447000000
H	  56.1304000000	  25.1152000000	  38.5146000000
H	  54.8985000000	  23.8936000000	  38.6218000000
H	  55.9175000000	  23.8616000000	  37.2680000000
