35

Li	  48.8508000000	  44.8006000000	  55.5380000000
O	  46.7254000000	  47.4104000000	  53.0779000000
O	  47.9202000000	  46.0930000000	  54.4208000000
C	  46.1598000000	  47.6287000000	  54.3476000000
C	  46.6531000000	  46.3889000000	  55.1050000000
C	  47.9890000000	  46.8574000000	  53.3195000000
H	  46.5120000000	  48.5873000000	  54.8428000000
H	  45.0733000000	  47.6818000000	  54.2203000000
H	  46.8592000000	  46.6573000000	  56.1251000000
H	  46.0006000000	  45.5289000000	  54.9794000000
H	  48.3410000000	  46.2884000000	  52.4934000000
H	  48.7854000000	  47.5869000000	  53.5415000000
N	  50.4296000000	  43.0258000000	  53.3082000000
S	  49.0075000000	  42.3887000000	  53.6132000000
O	  48.3567000000	  42.8840000000	  54.8452000000
O	  48.1485000000	  42.2188000000	  52.4808000000
C	  49.4652000000	  40.7035000000	  54.1069000000
F	  50.3479000000	  40.6627000000	  55.1008000000
F	  50.0001000000	  40.0101000000	  53.1175000000
F	  48.3666000000	  40.0547000000	  54.5167000000
S	  50.9460000000	  43.4068000000	  51.8543000000
O	  52.0141000000	  44.3804000000	  51.8530000000
O	  49.9523000000	  43.5343000000	  50.8109000000
C	  51.8725000000	  41.9366000000	  51.3724000000
F	  51.0853000000	  40.9536000000	  50.9730000000
F	  52.7158000000	  42.1431000000	  50.3085000000
F	  52.6281000000	  41.4394000000	  52.3649000000
S	  45.7701000000	  40.2063000000	  51.9996000000
S	  44.2218000000	  40.6889000000	  53.3670000000
S	  44.9023000000	  42.3622000000	  54.6321000000
S	  48.6420000000	  43.2719000000	  57.9331000000
S	  49.6209000000	  45.1731000000	  57.7691000000
S	  50.7147000000	  45.4831000000	  55.8965000000
S	  46.6262000000	  43.5236000000	  57.5653000000
S	  45.8455000000	  41.8559000000	  56.4826000000
