61

Li	  49.5736000000	  51.6483000000	  15.6488000000
N	  48.8246000000	  48.1508000000	  12.3823000000
S	  48.2627000000	  49.2300000000	  11.3370000000
O	  47.2417000000	  50.1540000000	  11.8662000000
O	  49.2225000000	  49.6936000000	  10.3856000000
C	  47.1422000000	  48.2214000000	  10.2687000000
F	  47.7475000000	  47.1354000000	   9.6981200000
F	  46.5525000000	  48.8928000000	   9.3043200000
F	  46.1653000000	  47.6675000000	  11.0164000000
S	  49.0884000000	  48.4300000000	  13.9308000000
O	  48.4775000000	  47.4456000000	  14.7467000000
O	  48.9383000000	  49.8453000000	  14.2785000000
C	  50.8700000000	  48.0722000000	  14.0812000000
F	  51.2521000000	  48.3782000000	  15.2919000000
F	  51.0838000000	  46.7798000000	  13.9833000000
F	  51.5894000000	  48.7017000000	  13.1538000000
N	  51.8230000000	  52.7881000000	  12.6999000000
S	  50.2962000000	  52.8493000000	  12.6876000000
O	  49.7629000000	  52.0983000000	  11.5499000000
O	  49.6231000000	  52.7569000000	  13.9463000000
C	  49.9651000000	  54.6098000000	  12.1226000000
F	  48.7224000000	  54.9462000000	  12.3176000000
F	  50.3071000000	  54.7009000000	  10.8385000000
F	  50.8054000000	  55.5511000000	  12.6620000000
S	  52.6919000000	  51.9856000000	  13.7798000000
O	  53.7274000000	  51.1956000000	  13.2194000000
O	  51.8505000000	  51.3895000000	  14.7709000000
C	  53.5005000000	  53.3834000000	  14.6617000000
F	  54.2441000000	  54.1679000000	  13.8402000000
F	  52.5401000000	  54.1451000000	  15.1986000000
F	  54.2299000000	  52.9069000000	  15.6490000000
N	  49.7451000000	  51.9223000000	  19.1040000000
S	  50.0280000000	  53.2092000000	  18.3116000000
O	  50.2208000000	  53.0040000000	  16.9511000000
O	  49.2644000000	  54.4054000000	  18.7359000000
C	  51.6385000000	  53.7009000000	  18.8978000000
F	  52.5663000000	  53.2025000000	  18.0690000000
F	  51.9748000000	  53.3840000000	  20.0821000000
F	  51.9430000000	  54.9574000000	  18.7952000000
S	  49.4737000000	  50.4596000000	  18.5525000000
O	  49.2286000000	  50.3594000000	  17.1363000000
O	  48.5740000000	  49.7559000000	  19.4080000000
C	  51.1204000000	  49.6928000000	  18.9069000000
F	  51.1067000000	  48.3822000000	  18.7117000000
F	  52.0528000000	  50.1030000000	  18.0794000000
F	  51.4198000000	  49.8968000000	  20.1856000000
N	  46.1674000000	  52.2238000000	  17.9605000000
S	  46.2529000000	  52.7941000000	  19.4524000000
O	  46.7070000000	  51.7890000000	  20.3883000000
O	  46.6379000000	  54.1671000000	  19.6982000000
C	  44.4356000000	  52.8556000000	  19.7720000000
F	  44.1319000000	  53.1656000000	  21.0292000000
F	  43.7963000000	  51.7331000000	  19.5188000000
F	  43.9112000000	  53.7753000000	  18.9783000000
S	  46.5873000000	  52.9979000000	  16.6420000000
O	  47.4700000000	  52.1935000000	  15.8127000000
O	  46.9793000000	  54.3609000000	  16.8581000000
C	  45.0602000000	  53.1510000000	  15.7164000000
F	  45.2661000000	  53.8027000000	  14.6299000000
F	  44.5951000000	  51.9254000000	  15.6058000000
F	  44.0773000000	  53.8083000000	  16.3287000000
