57

Li	  12.8558000000	  42.5844000000	  40.1842000000
O	  13.4782000000	  44.4108000000	  43.7254000000
O	  13.1810000000	  43.1863000000	  41.9086000000
C	  13.8541000000	  43.1060000000	  44.1341000000
C	  13.4588000000	  42.1971000000	  42.9084000000
C	  13.6611000000	  44.4153000000	  42.2434000000
H	  14.9010000000	  43.0422000000	  44.4891000000
H	  13.2414000000	  42.7954000000	  45.0260000000
H	  14.2371000000	  41.4397000000	  42.6868000000
H	  12.5509000000	  41.6460000000	  43.2007000000
H	  13.0798000000	  45.2101000000	  41.7596000000
H	  14.7695000000	  44.5803000000	  42.1422000000
N	   8.8601000000	  42.1537000000	  40.0368000000
S	   9.8759200000	  41.5975000000	  39.0261000000
O	   9.7348200000	  42.0499000000	  37.6511000000
O	  11.2722000000	  41.4932000000	  39.4380000000
C	   9.4475800000	  39.8383000000	  38.8470000000
F	   8.2233900000	  39.6078000000	  38.4066000000
F	   9.5282000000	  39.1714000000	  39.9957000000
F	  10.2116000000	  39.1108000000	  37.9979000000
S	   9.3106500000	  43.1490000000	  41.1532000000
O	   8.2564200000	  44.0228000000	  41.5909000000
O	  10.5763000000	  43.7052000000	  40.9461000000
C	   9.5544500000	  42.0149000000	  42.5445000000
F	  10.1454000000	  40.8860000000	  42.1764000000
F	  10.2390000000	  42.5475000000	  43.4988000000
F	   8.3997500000	  41.6827000000	  43.1290000000
N	  10.9020000000	  45.6272000000	  38.4443000000
S	  12.1759000000	  44.8532000000	  37.9566000000
O	  12.8488000000	  44.1858000000	  38.9994000000
O	  11.9331000000	  44.1711000000	  36.6869000000
C	  13.3521000000	  46.2362000000	  37.6515000000
F	  13.1788000000	  46.9954000000	  36.6069000000
F	  14.5821000000	  45.9021000000	  37.5112000000
F	  13.3954000000	  46.9390000000	  38.7534000000
S	   9.4304300000	  45.5330000000	  38.0445000000
O	   8.5697800000	  45.7280000000	  39.2194000000
O	   9.0578000000	  44.5272000000	  37.0237000000
C	   9.1431600000	  47.0745000000	  37.1374000000
F	   8.0185400000	  47.1717000000	  36.4246000000
F	   9.0948000000	  48.0772000000	  37.8796000000
F	  10.0546000000	  47.3839000000	  36.2494000000
N	  16.6875000000	  40.7544000000	  40.3363000000
S	  17.5019000000	  39.4992000000	  40.5224000000
O	  16.9384000000	  38.2526000000	  40.0503000000
O	  18.9025000000	  39.6452000000	  40.3167000000
C	  17.3945000000	  39.3161000000	  42.3635000000
F	  17.3579000000	  40.4576000000	  43.0806000000
F	  18.4122000000	  38.6521000000	  42.7798000000
F	  16.2252000000	  38.6663000000	  42.7298000000
S	  15.6166000000	  41.0338000000	  39.2216000000
O	  14.2627000000	  41.4168000000	  39.6168000000
O	  15.7569000000	  40.1974000000	  38.0785000000
C	  16.2355000000	  42.6250000000	  38.5700000000
F	  17.5310000000	  42.5209000000	  38.3540000000
F	  15.6650000000	  42.9779000000	  37.4415000000
F	  15.9686000000	  43.6531000000	  39.4007000000
