38

Li	  23.3007000000	   3.3134500000	  35.9813000000
O	  23.6928000000	   5.2824500000	  36.5428000000
O	  24.6512000000	   6.1074800000	  38.3423000000
C	  24.6589000000	   6.1132500000	  35.9982000000
C	  25.3488000000	   6.6736000000	  37.2479000000
C	  23.3913000000	   5.8587100000	  37.8228000000
H	  25.2744000000	   5.4590700000	  35.3487000000
H	  24.2884000000	   6.9772200000	  35.4303000000
H	  26.3428000000	   6.3931700000	  37.3645000000
H	  25.2339000000	   7.7630700000	  37.3642000000
H	  22.7539000000	   6.7728100000	  37.6935000000
H	  22.8801000000	   5.1119500000	  38.4509000000
O	  24.7971000000	   2.3332200000	  35.4365000000
O	  25.6183000000	   1.9585700000	  33.3790000000
C	  24.7443000000	   0.9233261001	  35.2463000000
C	  24.9670000000	   0.7910261001	  33.8137000000
C	  25.8215000000	   2.6622700000	  34.5884000000
H	  25.5286000000	   0.3762261001	  35.7274000000
H	  23.7571000000	   0.4609261001	  35.3362000000
H	  25.6790000000	  -0.0125738999	  33.5414000000
H	  23.9908000000	   0.6997261001	  33.2679000000
H	  25.8052000000	   3.7337200000	  34.2744000000
H	  26.7074000000	   2.3276000000	  35.0726000000
N	  23.1099000000	   3.0827200000	  40.1544000000
S	  22.5903000000	   2.8562500000	  41.5906000000
O	  21.8243000000	   1.6297900000	  41.7694000000
O	  23.4763000000	   3.2697100000	  42.7224000000
C	  21.3205000000	   4.1675100000	  41.6047000000
F	  21.6795000000	   5.2098400000	  40.8678000000
F	  21.0029000000	   4.6368600000	  42.8323000000
F	  20.1674000000	   3.6737000000	  41.0508000000
S	  23.0262000000	   2.0737500000	  38.9712000000
O	  22.8018000000	   2.7199400000	  37.6897000000
O	  22.4830000000	   0.7684261001	  39.2173000000
C	  24.7787000000	   1.7054300000	  38.8258000000
F	  25.4043000000	   1.6766700000	  39.9450000000
F	  24.8830000000	   0.5021261001	  38.2894000000
F	  25.3498000000	   2.5851400000	  38.0658000000
