42

Li	  48.2714000000	  47.0492000000	   1.4921700000
O	  49.7166000000	  47.3809000000	   0.3173551623
O	  51.3735000000	  46.5528000000	  -0.8961448377
C	  50.6594000000	  48.4774000000	   0.1266551623
C	  51.8408000000	  47.8483000000	  -0.6119448377
C	  50.0019000000	  46.4649000000	  -0.6662448377
H	  50.2162000000	  49.3195000000	  -0.4311448377
H	  51.0041000000	  48.8145000000	   1.1335800000
H	  52.1431000000	  48.3009000000	  -1.4883448377
H	  52.6619000000	  47.7634000000	   0.0928551623
H	  49.7916000000	  45.4500000000	  -0.2147448377
H	  49.3860000000	  46.7062000000	  -1.5611448377
N	  47.9500000000	  43.7234000000	   3.0406600000
S	  48.8916000000	  44.7240000000	   3.8425500000
O	  49.2128000000	  45.9207000000	   3.0787000000
O	  48.5521000000	  44.8818000000	   5.1968900000
C	  50.4674000000	  43.8195000000	   3.8312100000
F	  50.7902000000	  43.5509000000	   2.5895400000
F	  50.3575000000	  42.6859000000	   4.5748700000
F	  51.4002000000	  44.6033000000	   4.3134000000
S	  46.7054000000	  44.0639000000	   2.2264500000
O	  46.6152000000	  45.4878000000	   1.8858600000
O	  45.4748000000	  43.4256000000	   2.6846600000
C	  47.0033000000	  43.2020000000	   0.6319551623
F	  46.8640000000	  41.8976000000	   0.6863551623
F	  46.2379000000	  43.5404000000	  -0.3947448377
F	  48.2562000000	  43.3488000000	   0.4111551623
N	  45.9240000000	  49.4653000000	   0.1355551623
S	  46.3871000000	  49.6775000000	   1.6528500000
O	  45.3448000000	  50.1598000000	   2.5315700000
O	  47.3357000000	  48.6365000000	   2.0918400000
C	  47.4871000000	  51.1276000000	   1.4364500000
F	  48.3895000000	  50.8281000000	   0.5651551623
F	  48.1451000000	  51.6691000000	   2.5113100000
F	  46.8291000000	  52.1575000000	   0.9195551623
S	  45.8001000000	  48.0930000000	  -0.6648448377
O	  44.4369000000	  47.6584000000	  -0.7679448377
O	  46.8084000000	  47.1948000000	  -0.2353448377
C	  46.2869000000	  48.5827000000	  -2.3274448377
F	  45.2909000000	  48.9379000000	  -3.1413448377
F	  47.1285000000	  49.5844000000	  -2.3148448377
F	  46.8849000000	  47.5750000000	  -3.0154448377
