67

Li	  48.2643000000	  17.6810000000	  36.2734000000
O	  49.3336000000	  16.1898000000	  36.7619000000
C	  49.2446000000	  15.2822000000	  39.1050000000
C	  48.6004000000	  15.3837000000	  37.6869000000
C	  50.5228000000	  15.5397000000	  36.2506000000
C	  49.7053000000	  16.6612000000	  39.5888000000
C	  51.1530000000	  16.4133000000	  35.1738000000
H	  48.5223000000	  14.9548000000	  39.8450000000
H	  50.0074000000	  14.5405000000	  39.0145000000
H	  47.6043000000	  15.9113000000	  37.8328000000
H	  48.4065000000	  14.3797000000	  37.2306000000
H	  51.2351000000	  15.2135000000	  37.0223000000
H	  50.2164000000	  14.5845000000	  35.7653000000
H	  49.0051000000	  17.4051000000	  39.4105000000
H	  49.6617000000	  16.6813000000	  40.6844000000
H	  50.6707000000	  16.9875000000	  39.1461000000
H	  52.1775000000	  16.0976000000	  34.9695000000
H	  50.5775000000	  16.4886000000	  34.2708000000
H	  51.4975000000	  17.3667000000	  35.6262000000
O	  47.8115000000	  18.8447000000	  37.7986000000
C	  49.8653000000	  19.7685000000	  38.6930000000
C	  48.5960000000	  20.0105000000	  37.8521000000
C	  46.4545000000	  18.9883000000	  37.4171000000
C	  50.6249000000	  21.0528000000	  38.8992000000
C	  45.6530000000	  17.9524000000	  38.1573000000
H	  49.5739000000	  19.3755000000	  39.6859000000
H	  50.5014000000	  19.0082000000	  38.2169000000
H	  48.8943000000	  20.3007000000	  36.8135000000
H	  48.0392000000	  20.8909000000	  38.3265000000
H	  46.0014000000	  19.9816000000	  37.6196000000
H	  46.3674000000	  18.8849000000	  36.3488000000
H	  50.9866000000	  21.5495000000	  37.9818000000
H	  49.9956000000	  21.7087000000	  39.4260000000
H	  51.5200000000	  20.8556000000	  39.4355000000
H	  44.5905000000	  18.1205000000	  38.1270000000
H	  45.6956000000	  17.0538000000	  37.6494000000
H	  45.9819000000	  17.6634000000	  39.1223000000
N	  47.9411000000	  20.5984000000	  34.1530000000
S	  46.8439000000	  21.1702000000	  33.1668000000
O	  47.0179000000	  22.5741000000	  32.9943000000
O	  46.2723000000	  20.3839000000	  32.1189000000
C	  45.4849000000	  21.3148000000	  34.3606000000
F	  45.9193000000	  22.0904000000	  35.3700000000
F	  44.9742000000	  20.1795000000	  34.7938000000
F	  44.4020000000	  22.0085000000	  33.8984000000
S	  48.8139000000	  19.3911000000	  33.8388000000
O	  48.6323000000	  18.8530000000	  32.5574000000
O	  49.0289000000	  18.5111000000	  34.9848000000
C	  50.3676000000	  20.3325000000	  33.6644000000
F	  51.4041000000	  19.5599000000	  33.3536000000
F	  50.3814000000	  21.3666000000	  32.8078000000
F	  50.6804000000	  20.8649000000	  34.8595000000
N	  46.2616000000	  16.2910000000	  32.9861000000
S	  46.8120000000	  15.6678000000	  34.3314000000
O	  47.9143000000	  14.7510000000	  34.2518000000
O	  46.9041000000	  16.7006000000	  35.3657000000
C	  45.4694000000	  14.5775000000	  34.8288000000
F	  44.3888000000	  15.2763000000	  34.9941000000
F	  45.7526000000	  14.0286000000	  35.9763000000
F	  45.1568000000	  13.5923000000	  33.9762000000
S	  47.1197000000	  16.1925000000	  31.7011000000
O	  48.5460000000	  16.0495000000	  31.8085000000
O	  46.7453000000	  17.1188000000	  30.7055000000
C	  46.5065000000	  14.5848000000	  30.9414000000
F	  47.0689000000	  14.3356000000	  29.8240000000
F	  46.7462000000	  13.5201000000	  31.7159000000
F	  45.1830000000	  14.6473000000	  30.7179000000
