27

Li	  50.2113000000	  48.8221000000	  13.9873000000
O	  49.0934000000	  48.1872000000	  12.7426000000
O	  48.7600000000	  47.5415000000	  10.6122000000
C	  47.8598000000	  48.6370000000	  12.4633000000
C	  47.6033000000	  48.1818000000	  11.0055000000
C	  49.2618000000	  47.1214000000	  11.8500000000
H	  47.2459000000	  48.2236000000	  13.2297000000
H	  47.7825000000	  49.6909000000	  12.4548000000
H	  46.7623000000	  47.4799000000	  11.0521000000
H	  47.3159000000	  48.9670000000	  10.3000000000
H	  50.3891000000	  46.9389000000	  11.6741000000
H	  48.7092000000	  46.2217000000	  12.1777000000
N	  49.4383000000	  51.6617000000	  15.9193000000
S	  49.7046000000	  51.8670000000	  14.3843000000
O	  50.2533000000	  50.6856000000	  13.7687000000
O	  48.7003000000	  52.6294000000	  13.7255000000
C	  51.1307000000	  52.9273000000	  14.5200000000
F	  50.7906000000	  54.0463000000	  15.1365000000
F	  51.6553000000	  53.2900000000	  13.3616000000
F	  52.1217000000	  52.3975000000	  15.1453000000
S	  48.8694000000	  50.3840000000	  16.5905000000
O	  49.0520000000	  49.2089000000	  15.7268000000
O	  47.5705000000	  50.5775000000	  17.1050000000
C	  50.1231000000	  50.1303000000	  17.8783000000
F	  51.2563000000	  49.7354000000	  17.3689000000
F	  50.4200000000	  51.2748000000	  18.4639000000
F	  49.8162000000	  49.2237000000	  18.7688000000
