50

Li	  53.8299000000	  26.0368000000	  49.3546000000
O	  53.4502000000	  24.8574000000	  47.8409000000
O	  53.4748000000	  24.2842000000	  45.7013000000
C	  52.4413000000	  23.8947000000	  47.7672000000
C	  52.2775000000	  23.7289000000	  46.2171000000
C	  54.3206000000	  24.6350000000	  46.8024000000
H	  52.8057000000	  22.9907000000	  48.3005000000
H	  51.4716000000	  24.1100000000	  48.2021000000
H	  52.2059000000	  22.6275000000	  45.9710000000
H	  51.4427000000	  24.1367000000	  45.6477000000
H	  54.9411000000	  25.5892000000	  46.6400000000
H	  54.9580000000	  23.8565000000	  47.0907000000
N	  54.1777000000	  25.6437000000	  52.6437000000
S	  52.9807000000	  24.7952000000	  52.1875000000
O	  52.6849000000	  24.9886000000	  50.7536000000
O	  52.9481000000	  23.4686000000	  52.8004000000
C	  51.4840000000	  25.6385000000	  52.9352000000
F	  51.4677000000	  26.8863000000	  52.6492000000
F	  51.4234000000	  25.4554000000	  54.2787000000
F	  50.3506000000	  25.1678000000	  52.4996000000
S	  55.3671000000	  25.2420000000	  53.6200000000
O	  56.6672000000	  25.5449000000	  53.0804000000
O	  55.2444000000	  23.9236000000	  54.2630000000
C	  55.1854000000	  26.5153000000	  54.8252000000
F	  53.9982000000	  26.3532000000	  55.4361000000
F	  56.0859000000	  26.5662000000	  55.8057000000
F	  55.1214000000	  27.7364000000	  54.2556000000
N	  52.5440000000	  29.6163000000	  48.8518000000
S	  52.9211000000	  29.2087000000	  50.3185000000
O	  53.0125000000	  27.7661000000	  50.5835000000
O	  53.9104000000	  30.1015000000	  50.7941000000
C	  51.4647000000	  29.6976000000	  51.2839000000
F	  51.6117000000	  29.6909000000	  52.6212000000
F	  50.4236000000	  28.9755000000	  50.9700000000
F	  51.1162000000	  30.9674000000	  51.0042000000
S	  52.5435000000	  28.6867000000	  47.6429000000
O	  53.2886000000	  27.4718000000	  47.9363000000
O	  52.6616000000	  29.3479000000	  46.3641000000
C	  50.8073000000	  27.9969000000	  47.5416000000
F	  50.4763000000	  27.3337000000	  48.6139000000
F	  49.8599000000	  28.8687000000	  47.2813000000
F	  50.7490000000	  27.1653000000	  46.5392000000
S	  56.0694000000	  25.8961000000	  49.8986000000
S	  56.4074000000	  23.8264000000	  50.3390000000
S	  57.1598000000	  22.5864000000	  48.8495000000
S	  56.4494000000	  20.1590000000	  44.8024000000
S	  57.6641000000	  21.4535000000	  43.6910000000
S	  59.7250796598	  21.3899000000	  44.2739000000
S	  55.2151000000	  21.2042000000	  46.2284000000
S	  55.8555000000	  21.0408000000	  48.3033000000
