42

Li	  33.5428000000	  39.7200000000	  33.3853000000
O	  33.2061000000	  38.0367000000	  34.2825000000
C	  31.0425000000	  38.8651000000	  35.0304000000
C	  31.8585000000	  38.0138000000	  34.0385000000
C	  33.6001000000	  37.0742000000	  35.1695000000
C	  31.1505000000	  40.4046000000	  34.7851000000
C	  35.0833000000	  37.1304000000	  35.5806000000
H	  29.9930000000	  38.5287000000	  35.0958000000
H	  31.5007000000	  38.7772000000	  36.0255000000
H	  31.7107000000	  38.4205000000	  33.0014000000
H	  31.5622000000	  37.0143000000	  34.0787000000
H	  32.9799000000	  37.1805000000	  36.0553000000
H	  33.3171000000	  36.1089000000	  34.7267000000
H	  31.1537000000	  40.6720000000	  33.7268000000
H	  30.3591000000	  40.9486000000	  35.3138000000
H	  32.0471000000	  40.8830000000	  35.1944000000
H	  35.2046000000	  38.0479000000	  36.1180000000
H	  35.3378000000	  36.4155000000	  36.3334000000
H	  35.5750000000	  36.9837000000	  34.6530000000
N	  32.3557000000	  39.3829000000	  29.7927000000
S	  33.8590000000	  39.1990000000	  30.2105000000
O	  34.8759000000	  39.6390000000	  29.2621000000
O	  33.9899000000	  39.4952000000	  31.5951000000
C	  33.9262000000	  37.3459000000	  30.1838000000
F	  35.1818000000	  36.9240000000	  30.3573000000
F	  33.7353000000	  36.8974000000	  29.0031000000
F	  33.1338000000	  36.7781000000	  31.0333000000
S	  31.8303000000	  40.3432000000	  28.6649000000
O	  30.7385000000	  39.8169000000	  27.9196000000
O	  32.8608000000	  41.0662000000	  27.9679000000
C	  30.8984000000	  41.6531000000	  29.6521000000
F	  31.6473000000	  42.3440000000	  30.4694000000
F	  30.4003000000	  42.5260000000	  28.7731000000
F	  29.8752000000	  41.1480000000	  30.3274000000
S	  35.1205000000	  41.0414000000	  34.1235000000
S	  33.6762000000	  42.2814000000	  33.2693000000
S	  34.4686000000	  44.1804000000	  32.6292000000
S	  33.1405000000	  45.8269000000	  27.5506000000
S	  32.2290000000	  44.2138000000	  26.4183000000
S	  33.5150000000	  43.6471000000	  24.8222000000
S	  32.8438000000	  45.4322000000	  29.6303000000
S	  34.5667000000	  44.3787000000	  30.4747000000
