61

Li	  10.9005000000	  40.8917000000	  39.7863000000
O	  14.7643000000	  42.0020000000	  38.7791000000
O	  12.4748000000	  41.7524000000	  39.0916000000
C	  14.1877000000	  43.2851000000	  38.8892000000
C	  12.7078000000	  43.0725000000	  38.5483000000
C	  13.6791000000	  41.1011000000	  38.9247000000
H	  14.3040000000	  43.4719000000	  39.8835000000
H	  14.7258000000	  44.0143000000	  38.2786000000
H	  12.0901000000	  43.8800000000	  38.9823000000
H	  12.6128000000	  43.0742000000	  37.4593000000
H	  13.5789000000	  40.5672000000	  37.9732000000
H	  13.8344000000	  40.4309000000	  39.7915000000
O	  10.6446000000	  38.5588000000	  39.4153000000
O	   9.2382300000	  37.1728000000	  40.5275000000
C	  11.4317000000	  37.3927000000	  39.7729000000
C	  10.6138000000	  36.8795000000	  40.9202000000
C	   9.4081300000	  37.9497000000	  39.3790000000
H	  11.4351000000	  36.6701000000	  38.9645000000
H	  12.4716000000	  37.5726000000	  40.0146000000
H	  10.7880000000	  35.7900000000	  40.8625000000
H	  10.9883000000	  37.2273000000	  41.8189000000
H	   8.7248000000	  38.7362000000	  39.3460000000
H	   9.2493900000	  37.3838000000	  38.4999000000
N	   8.5454300000	  42.4177000000	  42.6675000000
S	   7.9716300000	  40.9397000000	  42.5332000000
O	   8.7191600000	  40.0948000000	  41.7010000000
O	   7.5155100000	  40.3502000000	  43.7643000000
C	   6.4376600000	  41.2215000000	  41.5993000000
F	   6.6730500000	  42.0360000000	  40.5988000000
F	   5.5158300000	  41.8484000000	  42.3095000000
F	   5.8430800000	  40.0996000000	  41.1286000000
S	   9.9124600000	  42.9599000000	  42.1067000000
O	  10.4334000000	  42.2920000000	  40.9228000000
O	  10.8022000000	  43.3799000000	  43.1568000000
C	   9.2758000000	  44.5172000000	  41.4642000000
F	   8.3119300000	  44.3646000000	  40.6001000000
F	   8.8339400000	  45.3050000000	  42.4443000000
F	  10.2329000000	  45.2470000000	  40.9159000000
N	  11.4269000000	  40.0516000000	  43.8516000000
S	  12.4230000000	  40.3730000000	  42.6421000000
O	  12.0106000000	  39.7983000000	  41.4094000000
O	  12.9966000000	  41.6989000000	  42.5860000000
C	  13.8171000000	  39.3266000000	  43.0227000000
F	  14.5759000000	  38.9678000000	  42.0007000000
F	  13.4046000000	  38.1715000000	  43.4476000000
F	  14.5513000000	  39.7765000000	  44.0731000000
S	  11.1236000000	  40.9865000000	  45.0912000000
O	   9.7379200000	  41.3360000000	  45.2185000000
O	  12.1004000000	  42.0744000000	  45.3741000000
C	  11.4414000000	  39.9537000000	  46.5063000000
F	  10.8541000000	  38.7960000000	  46.6283000000
F	  12.7007000000	  39.6629000000	  46.4436000000
F	  11.2024000000	  40.6335000000	  47.6318000000
S	   8.1416800000	  34.3030000000	  40.3336000000
S	   6.4566400000	  34.8842000000	  39.2517000000
S	   6.4460000000	  36.7998000000	  38.4195000000
S	   8.7533800000	  39.5109000000	  35.3809000000
S	  10.3555000000	  40.3857000000	  36.3320000000
S	   9.5961700000	  41.4233000000	  38.0017000000
S	   8.5642800000	  37.3282000000	  35.6930000000
S	   6.6691400000	  36.7460000000	  36.3278000000
