39

Li	  39.0770000000	  43.4635000000	  47.2767000000
N	  35.5387000000	  42.5179000000	  44.9197000000
S	  36.0105000000	  42.2156000000	  46.4081000000
O	  37.2856000000	  42.7921000000	  46.7309000000
O	  34.9667000000	  42.2987000000	  47.3781000000
C	  36.4101000000	  40.4959000000	  46.3927000000
F	  35.3830000000	  39.7526000000	  45.9439000000
F	  36.7828000000	  39.9811000000	  47.4834000000
F	  37.4318000000	  40.2430000000	  45.5389000000
S	  36.4331000000	  42.9176000000	  43.7055000000
O	  36.0191000000	  42.3199000000	  42.4280000000
O	  37.8722000000	  42.9963000000	  44.0400000000
C	  36.0301000000	  44.7055000000	  43.4490000000
F	  34.7375000000	  44.9003000000	  43.1234000000
F	  36.3031000000	  45.5412000000	  44.4480000000
F	  36.7097000000	  45.1824000000	  42.4225000000
N	  42.9160000000	  41.5031000000	  47.5722000000
S	  41.5565000000	  41.4091000000	  46.9099000000
O	  40.4860000000	  42.0541000000	  47.5957000000
O	  41.6829000000	  41.5499000000	  45.5100000000
C	  41.2824000000	  39.6029000000	  47.1695000000
F	  42.0579000000	  38.8437000000	  46.4392000000
F	  40.0049000000	  39.2329000000	  46.8082000000
F	  41.4055000000	  39.2877000000	  48.4428000000
S	  43.4886000000	  42.7208000000	  48.3936000000
O	  42.6419000000	  43.8850000000	  48.5358000000
O	  44.8738000000	  42.8291000000	  48.0871000000
C	  43.4577000000	  42.0579000000	  50.0918000000
F	  42.2143000000	  41.7582000000	  50.3531000000
F	  44.2539000000	  41.0667000000	  50.2545000000
F	  43.7622000000	  42.9943000000	  50.9451000000
S	  39.6722000000	  44.9488000000	  45.8061000000
S	  38.5742000000	  45.6587000000	  47.4656000000
S	  39.2607000000	  44.9420000000	  49.3258000000
S	  38.5663000000	  40.3387000000	  50.9479000000
S	  37.8296000000	  38.3431000000	  50.7809000000
S	  38.6932000000	  37.2069000000	  49.0929000000
S	  37.7191000000	  41.7213000000	  49.6226000000
S	  37.8568000000	  43.7131000000	  50.2945000000
