57

Li	   8.5921400000	  49.6119000000	  22.2287000000
O	  10.6924000000	  50.0898000000	  21.8061000000
O	  12.6813000000	  50.1594000000	  20.7664000000
C	  10.9533000000	  51.4090000000	  21.3088000000
C	  12.4781000000	  51.3329000000	  21.4715000000
C	  11.7810000000	  49.3316000000	  21.4379000000
H	  10.6119000000	  51.6170000000	  20.3168000000
H	  10.4453000000	  52.0958000000	  21.9734000000
H	  13.0952000000	  52.2542000000	  21.2088000000
H	  12.8587000000	  51.0960000000	  22.4983000000
H	  12.2880000000	  48.7835000000	  22.1764000000
H	  11.6686000000	  48.5133000000	  20.7575000000
O	   8.3727900000	  50.7160000000	  20.3486000000
O	   8.0317200000	  51.7418000000	  18.3546000000
C	   8.3558900000	  49.7073000000	  19.3501000000
C	   7.9708000000	  50.3576000000	  18.0160000000
C	   7.8167600000	  51.8047000000	  19.7178000000
H	   9.3293500000	  49.2619000000	  19.3280000000
H	   7.5655900000	  48.9553000000	  19.5327000000
H	   8.5712700000	  50.2521000000	  17.1040000000
H	   6.9390400000	  50.1042000000	  17.7111000000
H	   6.7588500000	  51.9562000000	  20.0495000000
H	   8.3145500000	  52.6811000000	  20.0807000000
O	   8.6121300000	  51.0167000000	  23.6461000000
O	   8.9578100000	  52.1695000000	  25.5029000000
C	   7.8903000000	  52.1976000000	  23.4427000000
C	   7.7080300000	  52.6231000000	  24.8896000000
C	   9.4576600000	  51.1737000000	  24.7515000000
H	   8.4624900000	  52.9898000000	  22.8838000000
H	   6.9229700000	  52.0648000000	  22.9985000000
H	   7.5332000000	  53.6806000000	  25.1226000000
H	   6.9414700000	  51.9818000000	  25.3219000000
H	   9.4713500000	  50.2433000000	  25.3715000000
H	  10.4832000000	  51.3803000000	  24.4299000000
N	   5.0062700000	  49.6970000000	  24.3229000000
S	   5.1971300000	  49.2317000000	  22.8067000000
O	   6.5813600000	  49.3836000000	  22.4282000000
O	   4.4471300000	  48.0493000000	  22.5009000000
C	   4.2340700000	  50.4278000000	  21.8654000000
F	   3.7609600000	  49.9165000000	  20.7752000000
F	   4.9836200000	  51.5107000000	  21.4872000000
F	   3.1791500000	  50.8447000000	  22.5402000000
S	   4.6298700000	  48.7942000000	  25.5581000000
O	   5.3702400000	  49.0974000000	  26.6981000000
O	   4.5914000000	  47.3552000000	  25.2304000000
C	   2.9390800000	  49.3252000000	  26.0121000000
F	   2.5802200000	  48.7289000000	  27.2018000000
F	   2.7986500000	  50.6507000000	  26.1520000000
F	   2.0396800000	  48.9362000000	  25.1392000000
S	   4.5673900000	  47.2496000000	  29.1944000000
S	   6.1731600000	  46.0550000000	  29.8737000000
S	   6.3279900000	  44.2517000000	  28.7818000000
S	   9.8790600000	  45.3041000000	  24.8587000000
S	   9.9865900000	  47.2605000000	  24.0794000000
S	   9.0760600000	  47.4735000000	  22.1712000000
S	   7.9232600000	  45.0016000000	  25.7272000000
S	   8.0754800000	  44.2533000000	  27.6997000000
