53

Li	  38.8523000000	  23.0578000000	  19.6251000000
O	  37.9295000000	  21.6229000000	  20.3497000000
O	  36.3652000000	  19.9912000000	  20.0703000000
C	  38.1639000000	  20.6807000000	  21.4731000000
C	  36.9905000000	  19.7872000000	  21.3292000000
C	  36.6830000000	  21.2929000000	  19.8261000000
H	  39.1262000000	  20.1587000000	  21.4212000000
H	  38.0731000000	  21.2193000000	  22.4425000000
H	  37.1905000000	  18.6865000000	  21.5629000000
H	  36.1853000000	  20.0459000000	  22.0370000000
H	  36.0164000000	  21.9810000000	  20.3345000000
H	  36.6563000000	  21.5512000000	  18.7927000000
O	  37.6923000000	  24.4742000000	  20.0061000000
O	  36.6543000000	  26.4802000000	  19.9357000000
C	  36.9718000000	  24.6141000000	  21.2177000000
C	  36.3828000000	  26.0209000000	  21.1510000000
C	  37.0980000000	  25.4260000000	  19.2043000000
H	  36.1152000000	  24.0142000000	  21.4140000000
H	  37.4635000000	  24.4418000000	  22.2042000000
H	  35.3092000000	  26.0967000000	  21.3125000000
H	  36.8515000000	  26.6634000000	  21.9130000000
H	  37.9179000000	  25.7795000000	  18.5223000000
H	  36.4018000000	  24.8940000000	  18.5965000000
N	  40.8173000000	  23.7984000000	  23.4625000000
S	  41.1477000000	  23.2023000000	  22.0226000000
O	  41.7734000000	  21.8727000000	  21.9919000000
O	  40.1358000000	  23.4487000000	  21.0278000000
C	  42.5611000000	  24.2165000000	  21.5912000000
F	  42.6305000000	  25.4048000000	  22.1774000000
F	  42.4915000000	  24.4329000000	  20.2598000000
F	  43.7174000000	  23.5985000000	  21.8618000000
S	  40.7613000000	  22.9816000000	  24.7930000000
O	  41.9734000000	  23.0975000000	  25.5648000000
O	  40.0198000000	  21.7344000000	  24.7645000000
C	  39.6387000000	  24.0800000000	  25.7024000000
F	  40.1737000000	  25.2680000000	  25.8725000000
F	  38.5123000000	  24.3408000000	  25.0797000000
F	  39.3086000000	  23.5423000000	  26.9059000000
N	  40.4636000000	  21.6014000000	  16.6150000000
S	  39.6347000000	  22.9228000000	  16.6443000000
O	  38.5112000000	  22.8904000000	  17.5397000000
O	  40.3940000000	  24.1160000000	  16.5988000000
C	  38.9173000000	  22.8185000000	  14.9524000000
F	  38.3971000000	  21.6284000000	  14.7483000000
F	  39.8910000000	  22.9781000000	  14.0429000000
F	  38.0804000000	  23.7624000000	  14.7581000000
S	  40.7568000000	  20.7684000000	  17.8985000000
O	  40.4875000000	  21.4859000000	  19.1247000000
O	  41.9926000000	  20.1054000000	  17.7673000000
C	  39.5811000000	  19.3594000000	  17.8874000000
F	  39.6183000000	  18.5948000000	  19.0180000000
F	  38.3807000000	  19.7459000000	  17.7437000000
F	  39.8462000000	  18.5389000000	  16.8530000000
