42

Li	  54.7694000000	  29.0420000000	  53.1980000000
O	  52.9574000000	  29.4230000000	  52.7435000000
C	  53.4275000000	  31.7990000000	  52.4988000000
C	  52.5509000000	  30.6013000000	  52.0510000000
C	  51.9804000000	  28.3781000000	  52.8262000000
C	  53.4619000000	  32.2174000000	  54.0000000000
C	  52.3714000000	  27.3922000000	  53.9146000000
H	  54.4611000000	  31.5006000000	  52.1913000000
H	  53.3247000000	  32.7029000000	  51.9621000000
H	  52.7786000000	  30.4179000000	  50.9959000000
H	  51.6060000000	  31.0395000000	  52.0634000000
H	  50.9846000000	  28.7747000000	  52.9486000000
H	  51.9494000000	  27.9495000000	  51.8685000000
H	  54.4023000000	  31.8819000000	  54.4970000000
H	  53.4675000000	  33.2611000000	  54.0366000000
H	  52.5479000000	  31.8505000000	  54.4866000000
H	  51.7840000000	  26.4617000000	  53.8793000000
H	  53.4771000000	  27.1482000000	  54.0348000000
H	  51.9721000000	  27.9668000000	  54.7383000000
N	  55.8680000000	  25.6360000000	  52.0130000000
S	  57.2667000000	  25.0385000000	  52.2802000000
O	  58.3904000000	  25.6078000000	  51.5725000000
O	  57.3939000000	  24.8382000000	  53.7245000000
C	  57.1154000000	  23.4105000000	  51.5788000000
F	  57.4756000000	  23.4091000000	  50.2548000000
F	  55.9068000000	  22.9186000000	  51.6904000000
F	  57.9817000000	  22.5484000000	  52.0638000000
S	  55.5166000000	  26.7534000000	  50.9334000000
O	  56.4919000000	  26.8245000000	  49.8468000000
O	  54.9510000000	  27.9676000000	  51.5308000000
C	  54.0354000000	  25.9113000000	  50.1644000000
F	  53.5812000000	  26.4676000000	  49.0195000000
F	  54.3556000000	  24.6196000000	  49.9546000000
F	  53.0438000000	  25.8079000000	  51.0900000000
S	  64.9595196598	  25.9837000000	  49.8801000000
S	  63.8998596598	  27.5509000000	  50.9714000000
S	  61.8291196598	  27.3724000000	  50.8519000000
S	  58.2253000000	  28.7510000000	  53.0293000000
S	  56.7601000000	  30.0628000000	  53.7488000000
S	  55.4050000000	  29.0508000000	  55.1690000000
S	  60.1279396598	  29.5982000000	  52.9464000000
S	  61.0114296598	  29.3169000000	  51.0250000000
