39

Li	  14.1932000000	   2.6971500000	   2.0369500000
N	  14.5362000000	   2.8971000000	   6.2784100000
S	  13.3573000000	   2.5915400000	   5.2873100000
O	  12.0585000000	   3.2504600000	   5.5333900000
O	  13.7728000000	   2.3230000000	   3.9492200000
C	  12.9356000000	   0.9198261001	   5.8333700000
F	  12.4655000000	   0.7787261001	   7.0864300000
F	  13.9986000000	   0.1159261001	   5.8281100000
F	  12.0833000000	   0.2790261001	   5.0165400000
S	  14.9460000000	   4.2669200000	   6.8664400000
O	  13.8600000000	   5.2653200000	   6.8680400000
O	  16.2377000000	   4.7139700000	   6.5072300000
C	  15.1534000000	   3.7772800000	   8.6498100000
F	  15.3174000000	   4.8990900000	   9.4088000000
F	  14.1053000000	   3.1326600000	   9.0413700000
F	  16.1024000000	   2.9356300000	   8.9904800000
N	  17.1909000000	   0.7632261001	   1.0850100000
S	  17.2433000000	   2.2851700000	   0.7027551623
O	  18.1984000000	   2.6460900000	  -0.3843448377
O	  15.9824000000	   3.0158400000	   0.9671670000
C	  18.2375000000	   2.9556300000	   2.1262300000
F	  19.5552000000	   2.7370300000	   1.9585600000
F	  17.8260000000	   2.4508400000	   3.2478400000
F	  18.1221000000	   4.2826600000	   2.3167800000
S	  15.9395000000	  -0.0891738999	   1.4605700000
O	  15.8676000000	  -1.2232738999	   0.6286551623
O	  14.7231000000	   0.6336261001	   1.7957000000
C	  16.4901000000	  -0.7897738999	   3.1338000000
F	  16.5018000000	   0.1774261001	   4.1004600000
F	  15.6506000000	  -1.7061738999	   3.6050400000
F	  17.7037000000	  -1.3895738999	   3.1398300000
S	  12.6515000000	   3.2856500000	   0.6733551623
S	  12.6298000000	   1.6611500000	  -0.6550448377
S	  13.6365000000	   2.1794300000	  -2.4662448377
S	  17.4028000000	   2.2946600000	  -4.6563448377
S	  19.3241000000	   1.9339200000	  -3.9822448377
S	  20.3206000000	   3.7520600000	  -3.3313448377
S	  16.2610000000	   0.6295261001	  -4.0573448377
S	  15.4096000000	   1.1025700000	  -2.1931448377
