34

Li	   3.1524700000	  24.5455000000	  49.6575000000
O	   0.2560003402	  22.6638000000	  50.9711000000
O	   1.5809100000	  23.4411000000	  49.3999000000
C	   0.8371003402	  21.4791000000	  50.3840000000
C	   1.8386200000	  22.0709000000	  49.3899000000
C	   0.3274003402	  23.5598000000	  49.9822000000
H	   1.4260700000	  20.8689000000	  51.0874000000
H	   0.0934003402	  20.7244000000	  49.9313000000
H	   2.8853500000	  21.8768000000	  49.5648000000
H	   1.5625400000	  21.7472000000	  48.4193000000
H	  -0.5618996598	  23.4477000000	  49.3535000000
H	   0.3644003402	  24.5469000000	  50.4328000000
O	   3.4561900000	  25.3789000000	  51.4967000000
O	   4.9701300000	  25.5802000000	  53.1955000000
C	   3.1651400000	  24.3167000000	  52.3894000000
C	   4.0909800000	  24.5522000000	  53.5789000000
C	   4.1882800000	  26.2793000000	  52.2471000000
H	   2.1253500000	  24.4222000000	  52.5930000000
H	   3.3023100000	  23.3839000000	  51.8371000000
H	   3.4843100000	  24.9103000000	  54.3678000000
H	   4.6551700000	  23.6472000000	  53.7979000000
H	   4.8091000000	  26.8566000000	  51.5921000000
H	   3.5741800000	  26.8256000000	  52.9129000000
O	   1.6603300000	  27.3867000000	  47.7113000000
O	   3.0124300000	  25.8144000000	  48.4070000000
C	   2.2466700000	  26.9683000000	  46.5125000000
C	   2.8706500000	  25.7051000000	  47.0510000000
C	   2.6407300000	  27.1399000000	  48.6017000000
H	   1.5760700000	  26.7485000000	  45.6884000000
H	   2.9611200000	  27.7793000000	  46.2990000000
H	   2.1833500000	  24.8783000000	  46.7434000000
H	   3.7827200000	  25.6317000000	  46.5141000000
H	   3.4455800000	  27.8288000000	  48.5951000000
H	   2.1567400000	  27.3399000000	  49.5333000000
