35

Li	  39.7681000000	  35.7806000000	  53.3731000000
O	  37.8997000000	  36.0355000000	  53.1307000000
C	  38.1549000000	  34.7058000000	  51.0989000000
C	  37.3726000000	  34.9479000000	  52.3219000000
C	  36.9224000000	  37.0734000000	  53.0933000000
C	  38.3545000000	  35.9537000000	  50.1816000000
C	  37.2992000000	  38.1891000000	  54.0514000000
H	  39.1049000000	  34.2333000000	  51.3913000000
H	  37.6154000000	  33.9702000000	  50.5108000000
H	  37.4264000000	  34.0954000000	  52.9583000000
H	  36.3377000000	  35.0900000000	  52.0244000000
H	  36.8049000000	  37.4652000000	  52.1204000000
H	  35.9998000000	  36.6587000000	  53.4445000000
H	  37.4591000000	  36.3101000000	  49.6754000000
H	  38.6922000000	  36.7739000000	  50.7820000000
H	  39.0477000000	  35.6280000000	  49.4303000000
H	  36.4034000000	  38.6150000000	  54.3561000000
H	  37.7764000000	  37.7664000000	  54.9430000000
H	  37.9732000000	  38.9143000000	  53.6764000000
S	  40.7454000000	  37.9147000000	  53.0689000000
S	  41.3396000000	  38.0118000000	  55.0863000000
S	  43.2462000000	  38.7977000000	  55.5590000000
S	  45.6392000000	  42.5512000000	  56.9878000000
S	  46.9926000000	  42.5799000000	  55.2694000000
S	  46.0118000000	  42.8122000000	  53.3606000000
S	  45.3354000000	  40.6052000000	  57.7929000000
S	  43.3900000000	  39.9513000000	  57.3171000000
S	  37.1550000000	  33.9858000000	  64.3557048377
S	  38.7653000000	  33.6042000000	  63.0844748377
S	  37.9510000000	  32.5586000000	  61.4750548377
S	  37.7044000000	  33.4011000000	  56.0847000000
S	  39.3124000000	  32.8309000000	  54.8097000000
S	  40.8125000000	  34.2936000000	  54.2642000000
S	  37.9789000000	  32.4495000000	  57.9169000000
S	  37.7986000000	  33.6616000000	  59.6099448377
