56

Li	   4.8079800000	  24.3704000000	  23.3790000000
O	   2.8991200000	  24.9561000000	  23.1670000000
O	   0.6566003402	  25.0185000000	  23.2143000000
C	   2.3930300000	  26.2353000000	  23.5772000000
C	   1.0386700000	  26.3762000000	  23.0917000000
C	   1.7735700000	  24.2647000000	  22.7930000000
H	   2.5100100000	  26.2722000000	  24.6437000000
H	   3.0030300000	  27.0440000000	  23.1813000000
H	   0.5857003402	  27.0163000000	  23.8453000000
H	   1.0754200000	  26.8084000000	  22.0188000000
H	   1.6511200000	  24.0370000000	  21.7279000000
H	   1.7535000000	  23.2996000000	  23.2993000000
O	   3.8338000000	  23.1569000000	  24.8455000000
O	   2.8132600000	  22.6012000000	  26.7988000000
C	   4.2341900000	  21.8422000000	  25.1286000000
C	   3.6521500000	  21.5439000000	  26.5519000000
C	   3.4636500000	  23.6300000000	  26.1002000000
H	   3.6554400000	  21.1845000000	  24.4236000000
H	   5.3368100000	  21.7396000000	  25.1174000000
H	   3.0756000000	  20.6232000000	  26.4873000000
H	   4.4446900000	  21.4636000000	  27.1979000000
H	   4.3158300000	  23.9370000000	  26.7407000000
H	   2.7886800000	  24.4715000000	  25.9909000000
O	   5.6257400000	  24.4134000000	  21.7079000000
C	   5.5213100000	  21.9598000000	  21.6102000000
C	   6.0431700000	  23.2448000000	  20.9456000000
C	   5.7268200000	  25.5213000000	  20.8642000000
C	   4.0621200000	  21.6748000000	  21.3086000000
C	   7.1359000000	  26.0226000000	  20.7045000000
H	   6.0997600000	  21.1171000000	  21.2626000000
H	   5.6997800000	  21.9603000000	  22.7052000000
H	   5.6453400000	  23.2518000000	  19.9244000000
H	   7.1553100000	  23.2014000000	  20.8497000000
H	   5.0834600000	  25.4108000000	  19.9180000000
H	   5.1638000000	  26.3670000000	  21.2754000000
H	   3.8276800000	  21.1810000000	  20.3844000000
H	   3.6013800000	  20.9246000000	  22.0747000000
H	   3.3727800000	  22.5047000000	  21.4169000000
H	   7.0515200000	  26.8852000000	  20.0251000000
H	   7.5849500000	  26.3964000000	  21.6268000000
H	   7.7132700000	  25.2643000000	  20.1400000000
N	   7.3199800000	  25.5183000000	  25.8019000000
S	   6.4737400000	  26.6059000000	  25.1520000000
O	   7.1730800000	  27.7774000000	  24.6402000000
O	   5.3191700000	  26.0782000000	  24.4452000000
C	   5.6678400000	  27.2477000000	  26.7107000000
F	   4.8161500000	  28.2739000000	  26.4835000000
F	   6.5636300000	  27.6360000000	  27.5942000000
F	   4.9053400000	  26.3115000000	  27.3541000000
S	   7.3160500000	  23.9302000000	  25.5746000000
O	   6.7888300000	  23.4975000000	  24.2814000000
O	   6.9697300000	  23.1127000000	  26.7284000000
C	   9.0838300000	  23.6349000000	  25.3965000000
F	   9.5567900000	  24.3405000000	  24.3938000000
F	   9.7764500000	  24.0577000000	  26.4902000000
F	   9.3642000000	  22.3270000000	  25.1550000000
