42

Li	  21.0591000000	  18.6868000000	  56.6437000000
O	  21.3812000000	  17.4665000000	  55.2156000000
C	  21.7017000000	  17.8531000000	  52.7240000000
C	  22.3781000000	  17.6050000000	  54.1143000000
C	  20.8698000000	  16.0798000000	  55.3356000000
C	  20.9089000000	  19.2489000000	  52.6775000000
C	  19.3728000000	  16.1887000000	  55.7581000000
H	  22.3977000000	  17.8213000000	  51.9422000000
H	  20.9760000000	  17.0230000000	  52.5495000000
H	  23.0888000000	  18.4523000000	  54.3019000000
H	  23.0276000000	  16.6890000000	  54.0530000000
H	  20.9121000000	  15.4556000000	  54.4383000000
H	  21.4647000000	  15.6222000000	  56.1299000000
H	  20.1319000000	  19.0885000000	  51.8576000000
H	  20.3506000000	  19.6046000000	  53.5861000000
H	  21.4314000000	  20.0403000000	  52.2746000000
H	  18.7314000000	  16.7417000000	  55.0946000000
H	  19.0670000000	  15.1578000000	  55.7636000000
H	  19.2467000000	  16.7070000000	  56.7245000000
N	  20.0554000000	  21.9870000000	  56.7666000000
S	  21.5969000000	  21.7028000000	  56.5565000000
O	  22.4702000000	  22.3782000000	  57.4527000000
O	  21.9603000000	  20.2971000000	  56.3216000000
C	  21.9782000000	  22.4563000000	  54.9236000000
F	  22.9914000000	  21.8798000000	  54.3423000000
F	  22.3064000000	  23.7030000000	  55.0588000000
F	  20.9404000000	  22.3989000000	  54.0888000000
S	  18.9364000000	  20.9377000000	  57.1866000000
O	  18.3977000000	  21.1833000000	  58.5296000000
O	  19.3150000000	  19.5695000000	  56.9335000000
C	  17.5599000000	  21.2282000000	  56.0277000000
F	  17.9716000000	  21.1757000000	  54.7868000000
F	  16.7008000000	  20.2233000000	  56.1481000000
F	  16.8431000000	  22.2939000000	  56.1418000000
S	  32.3450000000	  16.8958000000	  59.5672248377
S	  30.8435000000	  17.2298000000	  58.1416000000
S	  28.9765000000	  17.4661000000	  59.0697098377
S	  24.0993000000	  16.2953000000	  58.7157000000
S	  23.3886000000	  18.1984000000	  58.2630000000
S	  21.3916000000	  18.4935000000	  58.8598000000
S	  25.7998000000	  16.1270000000	  60.0139848377
S	  27.6617000000	  15.8393000000	  59.1208948377
