24

Li	  54.8889000000	  23.7420000000	  44.4327000000
N	  52.2139000000	  24.8942000000	  47.0691000000
S	  50.7165000000	  25.2961000000	  46.8538000000
O	  50.5342000000	  26.4519000000	  45.9857000000
O	  49.8141000000	  24.1708000000	  46.7486000000
C	  50.1379000000	  25.9930000000	  48.4459000000
F	  50.6700000000	  27.1632000000	  48.6728000000
F	  50.4359000000	  25.1709000000	  49.4646000000
F	  48.8102000000	  26.2475000000	  48.4801000000
S	  52.8549000000	  23.5078000000	  47.3615000000
O	  53.8507000000	  23.1295000000	  46.3912000000
O	  51.8784000000	  22.5139000000	  47.8402000000
C	  53.8715000000	  23.9040000000	  48.8455000000
F	  54.9101000000	  24.7128000000	  48.6925000000
F	  53.1557000000	  24.4598000000	  49.7622000000
F	  54.4347000000	  22.8000000000	  49.4030000000
S	  55.7738000000	  25.3137000000	  45.7457000000
S	  57.4572000000	  23.9723000000	  46.1741000000
S	  57.0947000000	  22.0955000000	  47.1081000000
S	  54.1859000000	  20.4086000000	  43.3256000000
S	  52.6243000000	  21.9207000000	  43.3915000000
S	  53.5170000000	  23.7459000000	  42.8487000000
S	  54.8734000000	  19.8453000000	  45.2373000000
S	  56.9150000000	  20.4765000000	  45.6761000000
