27

Li	  32.7486000000	  43.3069000000	   1.8556900000
O	  31.1709000000	  42.0971000000	   1.5518500000
C	  32.1225000000	  40.0431000000	   0.5129551623
C	  31.0438000000	  40.6801000000	   1.4696500000
C	  30.0566000000	  42.6966000000	   2.1091000000
C	  31.8367000000	  40.1721000000	  -1.0119448377
C	  30.2603000000	  44.2042000000	   1.8295300000
H	  33.1079000000	  40.4965000000	   0.7598551623
H	  32.1827000000	  39.0158000000	   0.8451551623
H	  31.1205000000	  40.1754000000	   2.3768700000
H	  30.1181000000	  40.3645000000	   0.9953220000
H	  29.1955000000	  42.3613000000	   1.5184900000
H	  29.8884000000	  42.5283000000	   3.1863900000
H	  31.8886000000	  41.1990000000	  -1.2733448377
H	  32.5276000000	  39.6482000000	  -1.6839448377
H	  30.8460000000	  39.8111000000	  -1.1980448377
H	  31.1588000000	  44.6040000000	   2.1086700000
H	  30.1950000000	  44.4649000000	   0.7822551623
H	  29.5605000000	  44.8582000000	   2.3680700000
S	  40.0018000000	  48.6354000000	   6.6621900000
S	  39.4039000000	  47.4351000000	   4.9560600000
S	  39.9598000000	  45.4411000000	   5.2793100000
S	  36.3683000000	  43.8661000000	   1.8354700000
S	  35.1812000000	  42.0961000000	   1.9365000000
S	  33.8108000000	  42.5593000000	   3.4308400000
S	  38.2084000000	  43.5657000000	   2.8346700000
S	  38.3127000000	  44.1817000000	   4.8691100000
