35

Li	  49.9372000000	  20.7115000000	  52.4915000000
O	  49.6245000000	  22.5703000000	  52.7736000000
O	  48.8133000000	  24.6954000000	  53.3234000000
C	  49.3842000000	  23.2988000000	  51.5401000000
C	  48.3420000000	  24.3577000000	  51.9986000000
C	  49.1103000000	  23.3365000000	  53.7727000000
H	  50.2542000000	  23.8141000000	  51.1021000000
H	  48.9448000000	  22.6775000000	  50.8123000000
H	  48.1975000000	  25.1943000000	  51.3082000000
H	  47.2791000000	  23.9639000000	  52.0915000000
H	  48.1878000000	  22.9498000000	  54.2978000000
H	  49.8919000000	  23.3643000000	  54.6022000000
N	  51.1836000000	  19.1979000000	  49.7680000000
S	  49.6091000000	  19.1992000000	  49.9986000000
O	  49.0905000000	  17.8486000000	  49.8254000000
O	  49.0408000000	  20.0880000000	  51.0079000000
C	  49.0195000000	  19.9040000000	  48.3960000000
F	  49.3669000000	  21.1185000000	  48.1471000000
F	  47.7563000000	  19.8513000000	  48.2181000000
F	  49.5662000000	  19.2438000000	  47.4355000000
S	  52.2660000000	  19.9624000000	  50.6477000000
O	  53.4759000000	  19.1812000000	  50.9370000000
O	  51.6760000000	  20.7173000000	  51.7151000000
C	  52.8024000000	  21.2083000000	  49.4638000000
F	  53.1428000000	  20.6415000000	  48.3501000000
F	  51.8248000000	  22.0455000000	  49.2407000000
F	  53.7866000000	  21.9930000000	  49.9677000000
S	  39.4826000000	  15.5686000000	  56.3498000000
S	  41.3290000000	  15.3202000000	  55.4001000000
S	  41.8746000000	  17.1841000000	  54.5316000000
S	  46.5897000000	  18.0097000000	  52.4266000000
S	  46.9356000000	  19.9597000000	  53.3944000000
S	  48.8751000000	  19.9864000000	  54.3132000000
S	  45.2683000000	  16.9400000000	  53.6573000000
S	  43.2504000000	  16.7834000000	  52.9987000000
