46

Li	  37.0220000000	  23.0277000000	  51.5636000000
N	  39.7008000000	  20.2671000000	  52.7141000000
S	  41.0792000000	  19.8350000000	  53.3502000000
O	  42.3168000000	  20.0146000000	  52.5932000000
O	  41.0961000000	  20.3765000000	  54.7027000000
C	  40.8097000000	  18.0048000000	  53.4653000000
F	  40.9539000000	  17.3257000000	  52.3791000000
F	  39.6630000000	  17.6735000000	  54.0176000000
F	  41.7517000000	  17.5162000000	  54.2898000000
S	  39.4907000000	  20.7764000000	  51.2241000000
O	  40.7324000000	  20.8524000000	  50.4182000000
O	  38.4658000000	  21.8074000000	  51.0706000000
C	  38.4801000000	  19.3757000000	  50.4985000000
F	  39.0757000000	  18.2667000000	  50.6640000000
F	  37.2713000000	  19.2357000000	  51.0331000000
F	  38.3216000000	  19.4254000000	  49.1692000000
N	  38.1168000000	  24.9313000000	  55.4985000000
S	  37.9442000000	  24.8161000000	  57.0467000000
O	  36.6861000000	  25.2691000000	  57.5285000000
O	  38.4723000000	  23.6320000000	  57.6472000000
C	  39.1117000000	  26.1595000000	  57.5295000000
F	  38.7201000000	  27.3236000000	  57.0740000000
F	  40.3366000000	  26.0165000000	  57.0601000000
F	  39.2525000000	  26.2546000000	  58.8671000000
S	  38.5577000000	  23.7687000000	  54.5852000000
O	  37.5935000000	  23.2916000000	  53.6199000000
O	  39.4451000000	  22.7778000000	  55.2106000000
C	  39.7487000000	  24.6938000000	  53.4421000000
F	  39.1933000000	  25.7916000000	  53.0175000000
F	  40.8963000000	  24.9852000000	  54.0967000000
F	  40.0996000000	  23.9278000000	  52.4230000000
N	  34.6074000000	  25.3560000000	  50.5925000000
S	  34.1694000000	  24.0281000000	  51.3676000000
O	  35.2076000000	  23.0432000000	  51.4016000000
O	  33.5005000000	  24.2937000000	  52.6696000000
C	  32.8505000000	  23.4005000000	  50.3031000000
F	  33.2654000000	  23.2105000000	  49.0368000000
F	  31.8946000000	  24.2426000000	  50.2401000000
F	  32.3608000000	  22.2537000000	  50.7134000000
S	  36.0855000000	  25.7058000000	  50.3439000000
O	  36.2262000000	  26.6578000000	  49.2303000000
O	  37.0926000000	  24.6803000000	  50.3906000000
C	  36.3866000000	  26.7678000000	  51.8064000000
F	  37.5450000000	  27.4761000000	  51.5967000000
F	  35.3934000000	  27.6255000000	  51.9715000000
F	  36.5120000000	  26.1191000000	  52.9083000000
