34

Li	  39.9401000000	  44.2797000000	  29.8356000000
O	  37.8160000000	  43.6842000000	  30.5510000000
C	  38.4090000000	  41.5169000000	  31.7519000000
C	  37.5025000000	  42.7516000000	  31.6034000000
C	  36.8598000000	  44.7012000000	  30.3505000000
C	  38.4086000000	  40.5992000000	  30.5732000000
C	  37.4422000000	  45.9138000000	  29.5821000000
H	  39.4346000000	  41.7459000000	  31.9736000000
H	  38.0977000000	  40.9509000000	  32.5977000000
H	  37.5394000000	  43.4797000000	  32.4472000000
H	  36.4747000000	  42.4589000000	  31.3717000000
H	  36.1054000000	  44.1769000000	  29.7797000000
H	  36.3983000000	  44.9593000000	  31.2888000000
H	  39.1837000000	  39.8704000000	  30.5245000000
H	  37.4529000000	  39.9517000000	  30.5799000000
H	  38.4770000000	  41.1718000000	  29.6859000000
H	  37.9388000000	  45.5835000000	  28.7166000000
H	  36.7004000000	  46.7247000000	  29.3629000000
H	  38.1587000000	  46.5102000000	  30.1904000000
N	  41.4544000000	  45.9683000000	  33.7560000000
S	  40.3728000000	  46.1907000000	  32.6552000000
O	  40.3665000000	  47.5663000000	  32.1451000000
O	  40.1861000000	  45.0828000000	  31.7381000000
C	  38.8896000000	  46.1853000000	  33.7059000000
F	  37.8217000000	  46.5272000000	  33.0356000000
F	  39.1425000000	  47.1185000000	  34.5604000000
F	  38.6112000000	  45.0340000000	  34.3066000000
S	  42.6561000000	  44.9673000000	  33.5468000000
O	  43.8217000000	  45.3227000000	  34.3901000000
O	  42.9349000000	  44.5651000000	  32.1450000000
C	  41.9305000000	  43.4003000000	  34.2484000000
F	  41.3894000000	  43.5361000000	  35.4445000000
F	  40.9750000000	  42.8523000000	  33.4402000000
F	  42.8207000000	  42.4795000000	  34.4071000000
