68

Li	  32.9062000000	  30.1692000000	  17.9124000000
O	  31.1457000000	  33.7179000000	  18.8664000000
O	  31.9482000000	  31.6266000000	  19.0329000000
C	  30.6526000000	  33.2518000000	  20.1166000000
C	  31.6591000000	  32.0755000000	  20.3327000000
C	  31.8883000000	  32.7642000000	  18.1975000000
H	  30.7767000000	  33.9887000000	  20.8942000000
H	  29.6222000000	  32.9216000000	  20.0258000000
H	  32.4999000000	  32.4712000000	  20.8822000000
H	  31.2663000000	  31.2558000000	  20.9597000000
H	  31.5262000000	  32.5974000000	  17.2184000000
H	  32.8489000000	  33.1528000000	  18.0243000000
O	  33.6088000000	  28.4171000000	  16.5812000000
O	  34.8378000000	  27.2602000000	  15.0735000000
C	  33.2514000000	  27.0953000000	  16.8326000000
C	  34.3113000000	  26.3224000000	  16.0048000000
C	  34.0809000000	  28.4173000000	  15.2635000000
H	  33.2661000000	  26.8699000000	  17.8683000000
H	  32.2300000000	  26.7291000000	  16.4363000000
H	  35.0273000000	  25.9040000000	  16.7428000000
H	  33.8636000000	  25.4511000000	  15.4424000000
H	  33.1905000000	  28.4243000000	  14.6851000000
H	  34.5897000000	  29.3125000000	  14.8925000000
N	  32.0644000000	  26.8815000000	  20.6696000000
S	  30.7034000000	  26.4771000000	  19.9727000000
O	  30.2585000000	  27.4707000000	  19.0006000000
O	  30.6220000000	  25.0651000000	  19.6633000000
C	  29.5927000000	  26.7032000000	  21.4944000000
F	  28.3881000000	  26.2610000000	  21.2152000000
F	  29.4964000000	  27.9892000000	  21.7701000000
F	  30.1556000000	  26.0062000000	  22.5583000000
S	  32.8736000000	  28.2468000000	  20.6721000000
O	  32.6956000000	  29.0662000000	  21.8581000000
O	  32.8351000000	  28.9190000000	  19.4098000000
C	  34.5663000000	  27.5787000000	  20.7680000000
F	  34.7850000000	  26.9030000000	  21.8456000000
F	  34.8686000000	  26.7248000000	  19.8336000000
F	  35.4079000000	  28.5570000000	  20.7968000000
N	  35.3236000000	  33.2581000000	  16.7773000000
S	  35.6768000000	  32.0105000000	  17.6961000000
O	  34.6127000000	  31.1296000000	  17.9503000000
O	  36.9108000000	  31.4002000000	  17.3125000000
C	  35.9623000000	  32.7516000000	  19.3573000000
F	  36.8169000000	  33.7278000000	  19.4100000000
F	  36.4697000000	  31.8802000000	  20.2495000000
F	  34.8501000000	  33.2655000000	  19.8741000000
S	  36.1428000000	  33.8922000000	  15.6104000000
O	  37.4785000000	  33.4045000000	  15.5644000000
O	  35.9501000000	  35.3183000000	  15.4377000000
C	  35.2959000000	  33.1359000000	  14.2308000000
F	  35.3481000000	  31.8041000000	  14.2226000000
F	  34.0181000000	  33.4011000000	  14.2465000000
F	  35.7242000000	  33.6330000000	  13.0846000000
N	  29.5317000000	  30.4020000000	  14.8665000000
S	  29.8699000000	  29.6290000000	  16.2258000000
O	  29.4093000000	  28.2194000000	  16.0778000000
O	  31.1545000000	  29.9807000000	  16.7940000000
C	  28.6978000000	  30.2572000000	  17.4395000000
F	  28.7053000000	  31.5462000000	  17.5376000000
F	  28.9362000000	  29.8057000000	  18.6620000000
F	  27.5017000000	  29.7928000000	  17.1419000000
S	  30.5700000000	  30.9956000000	  13.8766000000
O	  30.4627000000	  30.6336000000	  12.5083000000
O	  31.8866000000	  31.2158000000	  14.3954000000
C	  29.9300000000	  32.6926000000	  13.8513000000
F	  28.7193000000	  32.6921000000	  13.3109000000
F	  29.9243000000	  33.3387000000	  14.9905000000
F	  30.6503000000	  33.4253000000	  12.9962000000
