34

Li	  57.7233000000	  28.1947000000	  50.5770000000
O	  56.5761000000	  29.3277000000	  49.6426000000
C	  54.9581000000	  29.4927000000	  51.5327000000
C	  55.3745000000	  29.8832000000	  50.0790000000
C	  56.7746000000	  29.6541000000	  48.2651000000
C	  55.7028000000	  30.2432000000	  52.6900000000
C	  57.9205000000	  28.9772000000	  47.7615000000
H	  53.9130000000	  29.7641000000	  51.6057000000
H	  54.8739000000	  28.4355000000	  51.6530000000
H	  55.4238000000	  30.9699000000	  49.9925000000
H	  54.4967000000	  29.6714000000	  49.4598000000
H	  55.9110000000	  29.4364000000	  47.6881000000
H	  56.9688000000	  30.7074000000	  48.1426000000
H	  56.5871000000	  30.7609000000	  52.4367000000
H	  55.0099000000	  30.9123000000	  53.2247000000
H	  55.9027000000	  29.5553000000	  53.5121000000
H	  58.7689000000	  29.3088000000	  48.2665000000
H	  57.7676000000	  27.9378000000	  47.8507000000
H	  58.1818000000	  29.2346000000	  46.7113000000
N	  58.5030000000	  25.0869000000	  49.2666000000
S	  59.7978796598	  26.0467000000	  49.2698000000
O	  60.5885896598	  25.9262000000	  48.0435000000
O	  59.5569996598	  27.3374000000	  49.8515000000
C	  60.8308296598	  25.2882000000	  50.6074000000
F	  61.9910296598	  25.9676000000	  50.8011000000
F	  61.1779096598	  24.0419000000	  50.2774000000
F	  60.2163596598	  25.3413000000	  51.8203000000
S	  57.0712000000	  25.5697000000	  49.3348000000
O	  56.4292000000	  25.7450000000	  48.0471000000
O	  56.9193000000	  26.4595000000	  50.3903000000
C	  56.3630000000	  24.0105000000	  49.9885000000
F	  56.6861000000	  22.9037000000	  49.3382000000
F	  56.7593000000	  23.8250000000	  51.2052000000
F	  55.0472000000	  23.9714000000	  50.0539000000
