46

Li	  37.5132000000	  27.5815000000	  25.0350000000
O	  35.9800000000	  28.6210000000	  24.3444000000
O	  35.0415000000	  29.8119000000	  22.7189000000
C	  35.2706000000	  29.6767000000	  24.9936000000
C	  34.7877000000	  30.5418000000	  23.8634000000
C	  35.4095000000	  28.5141000000	  23.0751000000
H	  34.4376000000	  29.3378000000	  25.6443000000
H	  35.9481000000	  30.1411000000	  25.7166000000
H	  33.7778000000	  30.8820000000	  23.9519000000
H	  35.3881000000	  31.4415000000	  23.8461000000
H	  36.0713000000	  28.0780000000	  22.2946000000
H	  34.5247000000	  27.8756000000	  23.2839000000
O	  38.6840000000	  28.3043000000	  23.7774000000
O	  40.5827000000	  28.9726000000	  22.8305000000
C	  38.8554000000	  29.6590000000	  24.1438000000
C	  40.3218000000	  29.8190000000	  23.9523000000
C	  39.5651000000	  28.0419000000	  22.6777000000
H	  38.4474000000	  30.3994000000	  23.4043000000
H	  38.6169000000	  29.8767000000	  25.1975000000
H	  40.7699000000	  30.7264000000	  23.8016000000
H	  40.7803000000	  29.4308000000	  24.8913000000
H	  39.8022000000	  26.9362000000	  22.7526000000
H	  39.0759000000	  28.3084000000	  21.7551000000
N	  38.3467000000	  26.5910000000	  28.4721000000
S	  39.5184000000	  26.4895000000	  27.4363000000
O	  40.1731000000	  25.1830000000	  27.3483000000
O	  39.2651000000	  27.1727000000	  26.1974000000
C	  40.7946000000	  27.5819000000	  28.2702000000
F	  41.2043000000	  27.1684000000	  29.4838000000
F	  40.3356000000	  28.8388000000	  28.3851000000
F	  41.9221000000	  27.7506000000	  27.5811000000
S	  36.8721000000	  27.0749000000	  28.1759000000
O	  36.5562000000	  27.5785000000	  26.8368000000
O	  36.3379000000	  27.7456000000	  29.3743000000
C	  35.9538000000	  25.5091000000	  28.3571000000
F	  34.6975000000	  25.6450000000	  28.1076000000
F	  36.4616000000	  24.5208000000	  27.6156000000
F	  36.0236000000	  25.0390000000	  29.6248000000
S	  36.9168000000	  25.5144000000	  24.5691000000
S	  36.0100000000	  25.1954000000	  22.6864000000
S	  37.4280000000	  25.3348000000	  21.0455000000
S	  39.3634000000	  29.3765000000	  18.2513000000
S	  40.5176000000	  30.2263000000	  19.9580000000
S	  42.6457000000	  29.6458000000	  20.0376000000
S	  39.0927000000	  27.3205000000	  18.5506000000
S	  37.3767000000	  27.0169000000	  19.8208000000
