61

Li	  49.0192000000	  51.4675000000	  15.6487000000
N	  48.5299000000	  48.9761000000	  12.2749000000
S	  47.3033000000	  49.8385000000	  11.8403000000
O	  46.3688000000	  50.1615000000	  12.8884000000
O	  47.5989000000	  50.8785000000	  10.9048000000
C	  46.3819000000	  48.6086000000	  10.8981000000
F	  47.0025000000	  48.1361000000	   9.8559100000
F	  45.3825000000	  49.2715000000	  10.3116000000
F	  45.9895000000	  47.5751000000	  11.6730000000
S	  49.3764000000	  48.9483000000	  13.6129000000
O	  48.9363000000	  47.8272000000	  14.4527000000
O	  49.5150000000	  50.1808000000	  14.3009000000
C	  51.1504000000	  48.6395000000	  13.1016000000
F	  51.2295000000	  47.4535000000	  12.5669000000
F	  51.6581000000	  49.5330000000	  12.2836000000
F	  51.9651000000	  48.5749000000	  14.1692000000
N	  49.2583000000	  54.3276000000	  13.3812000000
S	  47.8655000000	  53.6664000000	  13.4780000000
O	  47.2614000000	  53.4046000000	  12.1962000000
O	  47.7912000000	  52.6207000000	  14.4688000000
C	  46.9227000000	  55.0423000000	  14.2002000000
F	  46.8459000000	  56.1233000000	  13.3789000000
F	  47.3881000000	  55.4822000000	  15.3309000000
F	  45.6739000000	  54.7320000000	  14.4241000000
S	  50.6331000000	  53.7635000000	  14.0352000000
O	  51.6131000000	  53.3683000000	  13.0600000000
O	  50.4526000000	  52.8078000000	  15.1037000000
C	  51.2963000000	  55.1690000000	  14.9196000000
F	  51.4447000000	  56.2615000000	  14.1925000000
F	  50.4520000000	  55.5473000000	  15.8174000000
F	  52.4877000000	  54.9445000000	  15.4950000000
N	  49.5357000000	  51.0481000000	  19.2128000000
S	  48.7740000000	  52.4217000000	  18.8599000000
O	  48.5924000000	  52.5618000000	  17.4554000000
O	  47.6366000000	  52.6500000000	  19.7071000000
C	  50.0077000000	  53.6604000000	  19.3897000000
F	  51.1402000000	  53.5866000000	  18.7492000000
F	  50.3571000000	  53.4600000000	  20.6472000000
F	  49.4340000000	  54.8725000000	  19.2692000000
S	  50.0671000000	  49.9542000000	  18.2802000000
O	  50.3141000000	  50.4115000000	  16.9379000000
O	  49.5590000000	  48.6518000000	  18.5479000000
C	  51.8405000000	  49.9289000000	  18.9346000000
F	  52.4572000000	  50.9598000000	  18.5159000000
F	  51.9177000000	  49.8790000000	  20.2835000000
F	  52.4708000000	  48.8831000000	  18.5029000000
N	  45.7403000000	  49.8259000000	  18.2855000000
S	  45.8342000000	  49.4288000000	  19.8469000000
O	  46.9670000000	  48.5669000000	  20.1600000000
O	  45.5988000000	  50.5497000000	  20.6487000000
C	  44.3994000000	  48.3266000000	  19.9636000000
F	  44.1938000000	  47.8169000000	  21.1390000000
F	  44.6150000000	  47.2865000000	  19.1037000000
F	  43.3015000000	  48.9471000000	  19.5830000000
S	  46.5465000000	  49.1911000000	  17.0532000000
O	  46.9255000000	  47.8108000000	  17.1417000000
O	  47.4396000000	  50.0149000000	  16.2294000000
C	  45.0444000000	  49.0052000000	  15.9455000000
F	  45.2287000000	  48.3266000000	  14.8021000000
F	  44.0925000000	  48.3766000000	  16.5351000000
F	  44.6470000000	  50.1379000000	  15.4821000000
