39

Li	  38.2892000000	  44.1271000000	  45.7530000000
N	  34.8853000000	  43.2198000000	  43.3716000000
S	  35.1592000000	  43.0866000000	  44.9115000000
O	  36.4154000000	  43.5541000000	  45.3746000000
O	  34.0746000000	  43.3927000000	  45.7631000000
C	  35.3057000000	  41.2782000000	  45.0035000000
F	  36.3517000000	  40.9305000000	  44.3976000000
F	  34.3116000000	  40.6676000000	  44.4296000000
F	  35.3708000000	  40.9046000000	  46.2843000000
S	  35.7948000000	  43.4996000000	  42.1490000000
O	  35.2327000000	  43.2440000000	  40.8374000000
O	  37.1946000000	  43.2765000000	  42.2724000000
C	  35.7870000000	  45.3836000000	  42.1728000000
F	  34.5884000000	  46.0179000000	  42.0605000000
F	  36.2818000000	  45.8835000000	  43.2736000000
F	  36.5450000000	  45.7476000000	  41.2188000000
N	  41.0953000000	  42.8421000000	  47.1727000000
S	  40.6590000000	  42.1327000000	  45.8642000000
O	  39.4890000000	  42.7878000000	  45.3544000000
O	  41.6778000000	  41.7973000000	  44.8943000000
C	  40.1700000000	  40.4539000000	  46.4484000000
F	  41.1390000000	  39.8005000000	  47.0842000000
F	  39.9302000000	  39.7377000000	  45.3964000000
F	  39.0909000000	  40.4477000000	  47.2047000000
S	  42.5402000000	  43.0057000000	  47.9020000000
O	  42.9908000000	  44.3725000000	  47.8816000000
O	  43.5344000000	  42.0246000000	  47.5790000000
C	  42.1390000000	  42.6640000000	  49.6609000000
F	  41.7121000000	  43.7823000000	  50.2329000000
F	  41.2254000000	  41.7111000000	  49.7365000000
F	  43.2001000000	  42.2229000000	  50.2971000000
S	  39.1968000000	  46.0047000000	  45.4378000000
S	  38.0950000000	  46.2013000000	  47.1447000000
S	  38.3933000000	  44.6735000000	  48.4464000000
S	  35.5281000000	  40.0987000000	  49.5099000000
S	  35.8419000000	  38.8377000000	  47.9771000000
S	  36.0131000000	  36.8720000000	  48.6130000000
S	  37.0885000000	  41.4837000000	  49.6467000000
S	  36.6752000000	  43.2745000000	  48.5587000000
