53

Li	  39.3475000000	  13.5518000000	  24.6138000000
O	  36.8830000000	  13.1303000000	  22.0211000000
O	  37.6906000000	  14.2780000000	  23.7467000000
C	  35.8567000000	  13.2292000000	  22.9746000000
C	  36.3512000000	  14.0449000000	  24.1359000000
C	  37.5806000000	  14.2263000000	  22.3418000000
H	  34.9518000000	  13.6898000000	  22.5452000000
H	  35.4581000000	  12.2314000000	  23.1236000000
H	  35.7082000000	  14.8758000000	  24.2810000000
H	  36.4005000000	  13.5748000000	  25.0932000000
H	  38.5404000000	  14.1400000000	  21.7936000000
H	  37.1827000000	  15.1657000000	  21.8510000000
O	  39.6718000000	  10.6393000000	  21.9062000000
O	  39.9946000000	  12.4307000000	  23.2683000000
C	  40.9310000000	  11.1710000000	  21.5443000000
C	  41.2549000000	  12.2064000000	  22.6168000000
C	  39.3314000000	  11.1951000000	  23.1765000000
H	  41.8042000000	  10.4716000000	  21.3899000000
H	  40.8466000000	  11.6949000000	  20.6000000000
H	  41.8442000000	  11.7582000000	  23.4077000000
H	  41.7121000000	  13.0841000000	  22.1849000000
H	  38.2435000000	  11.3045000000	  23.3074000000
H	  39.5574000000	  10.4868000000	  23.9864000000
N	  38.5732000000	  12.7393000000	  28.3419000000
S	  38.6687000000	  11.5659000000	  27.3318000000
O	  38.5237000000	  11.9804000000	  25.9870000000
O	  39.6794000000	  10.5861000000	  27.6529000000
C	  37.0593000000	  10.6734000000	  27.5920000000
F	  36.6888000000	  10.5983000000	  28.9102000000
F	  37.0523000000	   9.4441800000	  27.0447000000
F	  36.0841000000	  11.3639000000	  27.0206000000
S	  38.6394000000	  14.2488000000	  27.9305000000
O	  38.5329000000	  14.6469000000	  26.5272000000
O	  39.5928000000	  14.9914000000	  28.6834000000
C	  36.9480000000	  14.8318000000	  28.4626000000
F	  36.7509000000	  16.0451000000	  28.1012000000
F	  35.9466000000	  14.1223000000	  28.0066000000
F	  36.8199000000	  14.7954000000	  29.7766000000
N	  42.6167000000	  15.1391000000	  25.5473000000
S	  42.2509000000	  14.0386000000	  26.5284000000
O	  42.3969000000	  14.4722000000	  27.9295000000
O	  41.1606000000	  13.2296000000	  26.0698000000
C	  43.6314000000	  12.8626000000	  26.3371000000
F	  44.8265000000	  13.3146000000	  26.8046000000
F	  43.8773000000	  12.5214000000	  25.0695000000
F	  43.3049000000	  11.7672000000	  27.0312000000
S	  41.8400000000	  16.0708000000	  24.5781000000
O	  41.9470000000	  17.4510000000	  24.9054000000
O	  40.5393000000	  15.5555000000	  24.2704000000
C	  42.7416000000	  15.8684000000	  23.0083000000
F	  43.3788000000	  14.7223000000	  22.8899000000
F	  41.8192000000	  15.8933000000	  22.0406000000
F	  43.6090000000	  16.8158000000	  22.7190000000
