54

Li	  40.4992000000	  46.3891000000	   7.6130000000
N	  39.1486000000	  50.5596000000	   8.6785000000
S	  40.1916000000	  49.6670000000	   7.9870700000
O	  41.5486000000	  50.0716000000	   8.1931300000
O	  39.8922000000	  48.2599000000	   7.9479200000
C	  39.9794000000	  50.1869000000	   6.2134900000
F	  38.7542000000	  49.9843000000	   5.8549400000
F	  40.7241000000	  49.5450000000	   5.3235100000
F	  40.2607000000	  51.4142000000	   6.0063900000
S	  38.2116000000	  50.1447000000	   9.9132700000
O	  38.1247000000	  51.2575000000	  10.8345000000
O	  38.4189000000	  48.7778000000	  10.4322000000
C	  36.5521000000	  50.1682000000	   9.2012800000
F	  36.5934000000	  49.4234000000	   8.1189200000
F	  35.6668000000	  49.6713000000	  10.0445000000
F	  36.2163000000	  51.3584000000	   8.7382100000
N	  41.5579000000	  46.3136000000	   3.0417300000
S	  42.0128000000	  46.3608000000	   4.5460800000
O	  41.0614000000	  46.6201000000	   5.5587000000
O	  42.9092000000	  45.2970000000	   4.8269900000
C	  43.0606000000	  47.8456000000	   4.4876300000
F	  44.2343000000	  47.5541000000	   3.9893900000
F	  43.2786000000	  48.2814000000	   5.7408600000
F	  42.5093000000	  48.7968000000	   3.8062500000
S	  40.2270000000	  46.8780000000	   2.4069000000
O	  40.1567000000	  48.2954000000	   2.3825500000
O	  39.0321000000	  46.0978000000	   2.7784000000
C	  40.4007000000	  46.3756000000	   0.6463551623
F	  41.3308000000	  47.0073000000	  -0.0363448377
F	  40.6335000000	  45.1061000000	   0.6501551623
F	  39.2575000000	  46.4965000000	  -0.0149448377
N	  43.2513000000	  43.7486000000	   9.9094500000
S	  43.3121000000	  42.1712000000	   9.8472700000
O	  42.6374000000	  41.6666000000	   8.6927000000
O	  44.5520000000	  41.5773000000	  10.3058000000
C	  42.2338000000	  41.7004000000	  11.1955000000
F	  40.9896000000	  42.1247000000	  10.9200000000
F	  42.6319000000	  42.3336000000	  12.2933000000
F	  42.1153000000	  40.3932000000	  11.4658000000
S	  43.1286000000	  44.7408000000	   8.7183200000
O	  42.0452000000	  45.6731000000	   8.7848400000
O	  43.4236000000	  44.1694000000	   7.4343000000
C	  44.5659000000	  45.8146000000	   8.9546000000
F	  44.4605000000	  46.4113000000	  10.1306000000
F	  45.6700000000	  45.0779000000	   8.9976800000
F	  44.7625000000	  46.7424000000	   8.0566800000
S	  39.5835000000	  44.4612000000	   7.5340100000
S	  38.3460000000	  45.2606000000	   9.1167000000
S	  36.3034000000	  44.8652000000	   8.9395000000
S	  31.6830000000	  46.3587000000	   7.3247900000
S	  30.5073000000	  45.9930000000	   5.5414000000
S	  28.8344000000	  44.6027000000	   5.9408700000
S	  33.4467000000	  45.4408000000	   7.0703200000
S	  35.2530000000	  46.3092000000	   7.8229500000
