38

Li	  48.4600000000	  41.3532000000	  11.3311000000
O	  48.0409000000	  40.0682000000	  12.5319000000
O	  47.9340000000	  37.7215000000	  12.6908000000
C	  46.7432000000	  39.5672000000	  12.5982000000
C	  46.8453000000	  38.3301000000	  13.3606000000
C	  48.7595000000	  38.8362000000	  12.3878000000
H	  45.9260000000	  40.1620000000	  12.9039000000
H	  46.5044000000	  39.3334000000	  11.5174000000
H	  46.9543000000	  38.5443000000	  14.4065000000
H	  45.9303000000	  37.8118000000	  13.2892000000
H	  49.2666000000	  38.8356000000	  11.4182000000
H	  49.6543000000	  38.8212000000	  13.0136000000
O	  47.4511000000	  42.7313000000	  11.8465000000
C	  46.5684000000	  42.7515000000	   9.6640000000
C	  46.4519000000	  43.3732000000	  11.0805000000
C	  47.4263000000	  43.1890000000	  13.2225000000
C	  47.6989000000	  43.3910000000	   8.8742100000
C	  47.7886000000	  44.6624000000	  13.5733000000
H	  46.7239000000	  41.6879000000	   9.6971600000
H	  45.6388000000	  42.8278000000	   9.1208400000
H	  45.4853000000	  43.2074000000	  11.4664000000
H	  46.5505000000	  44.4150000000	  11.0095000000
H	  46.4987000000	  42.8585000000	  13.6818000000
H	  48.1773000000	  42.6015000000	  13.7404000000
H	  47.5052000000	  44.4236000000	   8.5058100000
H	  48.6853000000	  43.1769000000	   9.3324400000
H	  47.8713000000	  42.8662000000	   8.0031500000
H	  47.3628000000	  45.2972000000	  12.8631000000
H	  47.3801000000	  44.9677000000	  14.5106000000
H	  48.8301000000	  44.8304000000	  13.5085000000
S	  50.5647000000	  41.5379000000	  11.0569000000
S	  50.9879000000	  43.4275000000	  11.8358000000
S	  52.8727000000	  43.6843000000	  12.8992000000
S	  55.1212000000	  48.8130000000	  13.0056000000
S	  55.0222000000	  50.2414000000	  11.5454000000
S	  53.5401000000	  51.6303000000	  11.9110000000
S	  54.9075000000	  46.7900000000	  12.2930000000
S	  53.3220000000	  45.7064000000	  13.4913000000
