68

Li	  48.1952000000	  50.9844000000	  17.1580000000
O	  46.3849000000	  51.9845000000	  17.3584000000
O	  44.3354000000	  52.3058000000	  18.0280000000
C	  46.2937000000	  53.3005000000	  17.8148000000
C	  44.8340000000	  53.6091000000	  17.7304000000
C	  45.1528000000	  51.4651000000	  17.3974000000
H	  46.3195000000	  53.3743000000	  18.9104000000
H	  46.7742000000	  54.1228000000	  17.3684000000
H	  44.3595000000	  54.1894000000	  18.5577000000
H	  44.4545000000	  53.9681000000	  16.8112000000
H	  44.7138000000	  51.3167000000	  16.3736000000
H	  45.0904000000	  50.5470000000	  17.9835000000
O	  50.4052000000	  50.3158000000	  17.2996000000
O	  51.9343000000	  48.5844000000	  17.0222000000
C	  51.6947000000	  50.9102000000	  17.2834000000
C	  52.6567000000	  49.7055000000	  17.5017000000
C	  50.6627000000	  48.9095000000	  17.3113000000
H	  51.7999000000	  51.1728000000	  16.2222000000
H	  51.8427000000	  51.6903000000	  17.9908000000
H	  53.5474000000	  49.9170000000	  16.9010000000
H	  53.0304000000	  49.5490000000	  18.5234000000
H	  50.3869000000	  48.3453000000	  18.2617000000
H	  49.9857000000	  48.4958000000	  16.5063000000
N	  49.1942000000	  53.0063000000	  14.0800000000
S	  48.2339000000	  51.7715000000	  13.8173000000
O	  48.5100000000	  51.0073000000	  12.6074000000
O	  48.0005000000	  50.9955000000	  15.0188000000
C	  46.6353000000	  52.6350000000	  13.4476000000
F	  46.7403000000	  53.6419000000	  12.6307000000
F	  46.0641000000	  53.1659000000	  14.4540000000
F	  45.6955000000	  51.7992000000	  13.0054000000
S	  49.7976000000	  53.4652000000	  15.5071000000
O	  51.2465000000	  53.5399000000	  15.4928000000
O	  49.1194000000	  52.9285000000	  16.6884000000
C	  49.2631000000	  55.1720000000	  15.5229000000
F	  49.8630000000	  56.0475000000	  14.6698000000
F	  47.9849000000	  55.3468000000	  15.2133000000
F	  49.4566000000	  55.7275000000	  16.6878000000
N	  49.1159000000	  49.3543000000	  20.4719000000
S	  48.4171000000	  50.7339000000	  20.3459000000
O	  48.4613000000	  51.3514000000	  19.0918000000
O	  47.2175000000	  50.8455000000	  21.1057000000
C	  49.5628000000	  51.6667000000	  21.3456000000
F	  49.9012000000	  51.2261000000	  22.5282000000
F	  49.0858000000	  52.8444000000	  21.5523000000
F	  50.7099000000	  51.8596000000	  20.7242000000
S	  48.7037000000	  48.1252000000	  21.3351000000
O	  48.4253000000	  46.9440000000	  20.5850000000
O	  48.0066000000	  48.2608000000	  22.6013000000
C	  50.3820000000	  47.5844000000	  21.8179000000
F	  50.4699000000	  46.5259000000	  22.5598000000
F	  51.1574000000	  47.3566000000	  20.7305000000
F	  51.0287000000	  48.5285000000	  22.5378000000
N	  45.6962000000	  47.5372000000	  17.6584000000
S	  45.4097000000	  46.3571000000	  18.6187000000
O	  46.3413000000	  45.2213000000	  18.6288000000
O	  44.9407000000	  46.7952000000	  19.8903000000
C	  43.9009000000	  45.7364000000	  17.8520000000
F	  43.5829000000	  44.5529000000	  18.4156000000
F	  44.1437000000	  45.5251000000	  16.5398000000
F	  42.8315000000	  46.5848000000	  17.9660000000
S	  47.1180000000	  47.8742000000	  17.0741000000
O	  48.1143000000	  46.8043000000	  17.0252000000
O	  47.4928000000	  49.1716000000	  17.4280000000
C	  46.7623000000	  48.0578000000	  15.2723000000
F	  47.8556000000	  48.0768000000	  14.5437000000
F	  46.0804000000	  47.0306000000	  14.8842000000
F	  46.0575000000	  49.0970000000	  14.9710000000
