55

Li	  35.0762000000	   1.6714600000	  43.6949000000
O	  34.6083000000	   1.2174500000	  41.9586000000
C	  32.5124000000	   0.1410261001	  42.7973000000
C	  33.6811000000	   0.1291261001	  41.8283000000
C	  35.3038000000	   1.3446200000	  40.7734000000
C	  31.5273000000	  -1.0380738999	  42.6347000000
C	  36.5386000000	   0.4716261001	  40.6550000000
H	  32.9146000000	   0.0703261001	  43.8063000000
H	  31.9585000000	   1.0609800000	  42.6943000000
H	  33.1840000000	   0.3296261001	  40.8796000000
H	  34.2792000000	  -0.7902738999	  41.9228000000
H	  34.6390000000	   1.3511100000	  39.9265000000
H	  35.6929000000	   2.3826500000	  40.8098000000
H	  30.4852000000	  -0.6170738999	  42.6206000000
H	  31.7143000000	  -1.5605738999	  41.7071000000
H	  31.6811000000	  -1.8013738999	  43.4274000000
H	  36.4031000000	  -0.5913738999	  40.4402000000
H	  37.1126000000	   0.9538261001	  39.8099000000
H	  37.1423000000	   0.4995261001	  41.5606000000
O	  35.5870000000	   0.1689261001	  44.7521000000
C	  34.5817000000	  -1.5450738999	  46.4334000000
C	  35.2231000000	  -1.1831738999	  44.9449000000
C	  36.6389000000	   0.6542261001	  45.5929000000
C	  33.3626000000	  -0.6513738999	  46.7685000000
C	  37.8754000000	   0.5249261001	  44.6543000000
H	  34.2208000000	  -2.5923738999	  46.4517000000
H	  35.2338000000	  -1.3961738999	  47.2690000000
H	  34.5182000000	  -1.3512738999	  44.1558000000
H	  35.9959000000	  -1.8517738999	  44.6270000000
H	  36.5340000000	   1.5845600000	  46.1188000000
H	  36.7353000000	  -0.0270738999	  46.4586000000
H	  33.0356000000	  -0.9502738999	  47.7993000000
H	  33.6640000000	   0.3707261001	  46.6151000000
H	  32.5321000000	  -0.8419738999	  46.0155000000
H	  38.1460000000	  -0.4333738999	  44.3748000000
H	  37.7950000000	   1.1711200000	  43.7598000000
H	  38.7536000000	   0.8969261001	  45.2318000000
O	  34.6028000000	   3.4841400000	  44.2139000000
C	  36.6854000000	   4.7578600000	  43.8239000000
C	  35.1808000000	   4.8136500000	  44.1804000000
C	  33.3528000000	   3.5008900000	  44.8216000000
C	  37.1049000000	   4.2669700000	  42.4647000000
C	  32.3720000000	   4.1609800000	  43.8672000000
H	  37.0570000000	   5.7521200000	  44.1235000000
H	  37.2011000000	   4.1517800000	  44.6591000000
H	  34.7685000000	   5.4715800000	  43.4317000000
H	  35.0612000000	   5.2766900000	  45.1391000000
H	  33.0699000000	   2.4863900000	  45.0578000000
H	  33.3724000000	   4.1361000000	  45.7423000000
H	  38.1054000000	   4.4890300000	  42.3175000000
H	  37.0389000000	   3.1648500000	  42.4202000000
H	  36.4898000000	   4.6718800000	  41.7225000000
H	  32.5805000000	   5.2021600000	  43.5458000000
H	  32.2354000000	   3.6748700000	  42.9382000000
H	  31.3896000000	   4.2852500000	  44.2189000000
