60

Li	  43.6294000000	  46.4017000000	  48.3576000000
O	  43.3511000000	  45.2511000000	  50.1663000000
O	  41.3528000000	  44.2794000000	  50.1494000000
C	  43.6841000000	  43.8823000000	  50.4350000000
C	  42.3424000000	  43.2184000000	  50.1898000000
C	  41.9851000000	  45.3578000000	  50.6100000000
H	  44.4635000000	  43.6131000000	  49.7438000000
H	  44.1012000000	  43.6062000000	  51.4154000000
H	  42.2670000000	  42.6941000000	  49.2852000000
H	  42.0441000000	  42.5430000000	  50.9669000000
H	  41.9554000000	  45.3910000000	  51.6881000000
H	  41.4292000000	  46.2478000000	  50.3484000000
O	  45.0441000000	  47.6684000000	  48.9819000000
C	  46.9319000000	  45.9452000000	  48.8771000000
C	  46.4141000000	  47.4172000000	  48.5929000000
C	  44.7786000000	  49.0506000000	  49.0072000000
C	  46.8014000000	  45.6580000000	  50.2683000000
C	  43.2849000000	  49.2105000000	  49.2188000000
H	  46.4054000000	  45.2887000000	  48.1430000000
H	  47.8894000000	  45.9225000000	  48.5382000000
H	  46.5610000000	  47.6835000000	  47.5114000000
H	  47.2266000000	  48.0050000000	  48.9952000000
H	  45.3906000000	  49.4830000000	  49.8556000000
H	  45.1446000000	  49.5443000000	  48.1387000000
H	  46.5965000000	  44.5982000000	  50.3893000000
H	  47.6753000000	  45.8349000000	  50.7833000000
H	  46.0306000000	  46.2498000000	  50.7722000000
H	  42.9677000000	  50.2318000000	  49.5211000000
H	  42.7873000000	  49.0191000000	  48.3235000000
H	  42.9444000000	  48.5530000000	  50.0346000000
N	  43.9661000000	  44.1389000000	  44.3996000000
S	  44.5867000000	  44.4064000000	  45.8031000000
O	  45.8473000000	  45.0976000000	  45.6923000000
O	  43.7065000000	  44.6314000000	  46.9399000000
C	  45.1644000000	  42.7558000000	  46.2136000000
F	  45.6095000000	  42.7607000000	  47.4604000000
F	  46.0864000000	  42.4136000000	  45.3622000000
F	  44.1915000000	  41.8285000000	  46.1144000000
S	  42.6296000000	  44.5264000000	  43.6802000000
O	  42.8780000000	  45.4756000000	  42.6341000000
O	  41.5493000000	  44.7741000000	  44.5822000000
C	  42.1436000000	  43.0404000000	  42.8285000000
F	  43.1454000000	  42.3483000000	  42.2870000000
F	  41.5048000000	  42.1826000000	  43.6437000000
F	  41.3199000000	  43.3167000000	  41.8570000000
N	  40.8048000000	  47.8730000000	  45.6757000000
S	  42.1088000000	  48.1678000000	  44.8737000000
O	  43.3817000000	  47.9058000000	  45.5084000000
O	  42.0417000000	  48.0079000000	  43.4710000000
C	  41.9642000000	  49.9983000000	  44.9528000000
F	  40.8447000000	  50.4218000000	  44.4596000000
F	  42.9655000000	  50.6088000000	  44.3682000000
F	  41.9190000000	  50.5286000000	  46.1545000000
S	  40.5285000000	  46.9452000000	  46.8712000000
O	  41.7657000000	  46.6336000000	  47.5230000000
O	  39.5207000000	  46.0189000000	  46.4997000000
C	  39.7196000000	  48.1234000000	  47.9813000000
F	  38.5395000000	  48.5132000000	  47.5070000000
F	  39.5656000000	  47.6985000000	  49.2068000000
F	  40.3821000000	  49.2421000000	  48.1560000000
