46

Li	  26.3738000000	  53.5142000000	   2.6148600000
N	  22.4831000000	  53.2666000000	   1.0098300000
S	  21.3445000000	  52.9239000000	   2.0568100000
O	  21.2776000000	  51.5279000000	   2.4232700000
O	  21.2141000000	  53.9013000000	   3.1165200000
C	  19.9089000000	  53.1195000000	   1.0127900000
F	  19.7955000000	  54.4055000000	   0.5661363757
F	  18.7756000000	  52.8476000000	   1.6071000000
F	  19.9482000000	  52.3331000000	  -0.0815636243
S	  23.6816000000	  54.3028000000	   1.1669700000
O	  24.9967000000	  53.7302000000	   1.0034000000
O	  23.5356000000	  55.2957000000	   2.2417400000
C	  23.4859000000	  55.3031000000	  -0.2848636243
F	  22.2110000000	  55.5911000000	  -0.4008636243
F	  24.1506000000	  56.4440000000	  -0.3267636243
F	  23.8228000000	  54.6217000000	  -1.3366636243
N	  26.0575000000	  50.9354000000	   4.8976700000
S	  24.7783000000	  51.4176000000	   4.1094100000
O	  24.9130000000	  52.6763000000	   3.4670400000
O	  23.9824000000	  50.3477000000	   3.4600100000
C	  23.6971000000	  51.8457000000	   5.5740900000
F	  22.5308000000	  52.5124000000	   5.3701900000
F	  24.3128000000	  52.5883000000	   6.4034100000
F	  23.3559000000	  50.7802000000	   6.2102800000
S	  27.5917000000	  51.1923000000	   4.6367400000
O	  27.7042000000	  52.0902000000	   3.5178400000
O	  28.4892000000	  50.0816000000	   4.7521500000
C	  27.9844000000	  52.1865000000	   6.1247300000
F	  27.4446000000	  51.6019000000	   7.2428100000
F	  29.3357000000	  52.1857000000	   6.2711000000
F	  27.6136000000	  53.4511000000	   6.1072600000
N	  25.3276000000	  55.6310000000	   5.8610000000
S	  26.2750000000	  55.9602000000	   4.6604000000
O	  26.7937000000	  54.7947000000	   3.9646700000
O	  25.7702000000	  57.1255000000	   3.9450400000
C	  27.6312000000	  56.6810000000	   5.6178000000
F	  28.7623000000	  56.7360000000	   4.9207100000
F	  27.8645000000	  55.9629000000	   6.6452300000
F	  27.3623000000	  57.8710000000	   5.9376800000
S	  23.8259000000	  56.1034000000	   6.0350800000
O	  22.8834000000	  55.2896000000	   5.3742700000
O	  23.5763000000	  57.5913000000	   5.9674200000
C	  23.5110000000	  55.8401000000	   7.9126500000
F	  24.2707000000	  56.6166000000	   8.5999300000
F	  22.2623000000	  56.0711000000	   8.1765400000
F	  23.8263000000	  54.5613000000	   8.1833000000
