68

Li	  34.4997000000	  45.1869000000	  48.2895000000
O	  32.7916000000	  41.3691000000	  49.3912000000
O	  33.3576000000	  43.5139000000	  49.4477000000
C	  31.7404000000	  42.1349000000	  48.8794000000
C	  31.9653000000	  43.5325000000	  49.5762000000
C	  33.7664000000	  42.2556000000	  49.8791000000
H	  31.7911000000	  42.2634000000	  47.8153000000
H	  30.7028000000	  41.7915000000	  49.1682000000
H	  31.4512000000	  44.3051000000	  49.0982000000
H	  31.8779000000	  43.4458000000	  50.6903000000
H	  33.7364000000	  42.1916000000	  50.9890000000
H	  34.8029000000	  42.0713000000	  49.5496000000
O	  33.7497000000	  45.5193000000	  46.5758000000
O	  33.4570000000	  45.8428000000	  44.3632000000
C	  32.3820000000	  45.3095000000	  46.3299000000
C	  32.2055000000	  45.9919000000	  44.8783000000
C	  34.2031000000	  46.2443000000	  45.4467000000
H	  32.2994000000	  44.2494000000	  46.3635000000
H	  31.7346000000	  45.6146000000	  47.2241000000
H	  31.3995000000	  45.5715000000	  44.3623000000
H	  32.0513000000	  47.0746000000	  45.0250000000
H	  34.0478000000	  47.2564000000	  45.6310000000
H	  35.2531000000	  46.1030000000	  45.3509000000
N	  31.8355000000	  47.8466000000	  50.4137000000
S	  31.4373000000	  46.7654000000	  51.4388000000
O	  30.3685000000	  45.9900000000	  50.9470000000
O	  32.4691000000	  46.0890000000	  52.1616000000
C	  30.7023000000	  47.7461000000	  52.7381000000
F	  30.2295000000	  47.0056000000	  53.6726000000
F	  29.6831000000	  48.5431000000	  52.3802000000
F	  31.6614000000	  48.4901000000	  53.2628000000
S	  32.9580000000	  47.8094000000	  49.3647000000
O	  32.5202000000	  48.2885000000	  48.0858000000
O	  33.7400000000	  46.6089000000	  49.3768000000
C	  34.1345000000	  49.1583000000	  49.8638000000
F	  33.6962000000	  50.3603000000	  49.6757000000
F	  34.4282000000	  49.0967000000	  51.1373000000
F	  35.2841000000	  49.1038000000	  49.2300000000
N	  37.0923000000	  43.2229000000	  51.6532000000
S	  35.9928000000	  44.3506000000	  51.4718000000
O	  35.9165000000	  44.8220000000	  50.1302000000
O	  34.7692000000	  44.2347000000	  52.2355000000
C	  36.8091000000	  45.7998000000	  52.3104000000
F	  38.0648000000	  45.9657000000	  51.9683000000
F	  36.8453000000	  45.7201000000	  53.6155000000
F	  36.1481000000	  46.9646000000	  52.1611000000
S	  36.8985000000	  41.8024000000	  52.3163000000
O	  38.1093000000	  41.0520000000	  52.0829000000
O	  35.5766000000	  41.1259000000	  52.0840000000
C	  36.8013000000	  42.1284000000	  54.1024000000
F	  37.2830000000	  41.1047000000	  54.7897000000
F	  37.4697000000	  43.1929000000	  54.4871000000
F	  35.5916000000	  42.3649000000	  54.5293000000
N	  37.8292000000	  44.3521000000	  47.2649000000
S	  36.9046000000	  43.1269000000	  47.4056000000
O	  37.4795000000	  41.9627000000	  48.0201000000
O	  35.5400000000	  43.5605000000	  47.5709000000
C	  36.8318000000	  42.6568000000	  45.6723000000
F	  36.0357000000	  41.6314000000	  45.4225000000
F	  37.9891000000	  42.3573000000	  45.0774000000
F	  36.3689000000	  43.6474000000	  44.9618000000
S	  37.5938000000	  45.8230000000	  47.8142000000
O	  38.4390000000	  46.0590000000	  48.9784000000
O	  36.2008000000	  46.1980000000	  47.8067000000
C	  38.3448000000	  46.8054000000	  46.5010000000
F	  38.3072000000	  48.1039000000	  46.7978000000
F	  39.5592000000	  46.5019000000	  46.2315000000
F	  37.6590000000	  46.6208000000	  45.3801000000
