28

Li	  52.4084000000	   1.1139600000	  45.5749000000
O	  53.8909000000	   1.0021400000	  46.7412000000
O	  54.6811000000	   0.2942639598	  48.7763000000
C	  54.6029000000	   2.0576400000	  47.3551000000
C	  54.3860000000	   1.6011900000	  48.7598000000
C	  54.1205000000	  -0.0917360402	  47.5626000000
H	  55.6653000000	   1.9607100000	  47.2504000000
H	  54.1689000000	   2.9363300000	  47.0270000000
H	  55.0752000000	   2.2237000000	  49.4276000000
H	  53.4226000000	   1.7324500000	  49.0496000000
H	  53.2121000000	  -0.7032360402	  47.7272000000
H	  54.8901000000	  -0.7917360402	  47.0581000000
S	  50.6226000000	   0.7891639598	  46.8221000000
S	  50.1883000000	   2.6930400000	  47.5302000000
S	  49.5009000000	   4.3853400000	  46.3467000000
S	  48.2121000000	   8.5650600000	  46.9219000000
S	  50.1392000000	   8.7416800000	  46.1124000000
S	  50.9169000000	  10.6624000000	  46.3065000000
S	  48.0258000000	   6.9794500000	  48.1438000000
S	  47.7649000000	   5.3055800000	  47.0380000000
S	  52.4641000000	  -7.9298360402	  48.0372000000
S	  52.1577000000	  -6.6607360402	  46.3692000000
S	  52.2647000000	  -4.5923360402	  46.8127000000
S	  53.4635000000	  -0.9035360402	  44.0521000000
S	  52.6297000000	   0.5391639598	  42.8036000000
S	  51.6347000000	   2.0762300000	  43.7597000000
S	  52.6312000000	  -2.7691360402	  43.6988000000
S	  51.4202000000	  -3.4031360402	  45.2636000000
