54

Li	  24.3270000000	  31.4812000000	  52.5677000000
N	  25.8246000000	  31.1176000000	  50.0103000000
S	  27.1447000000	  31.5922000000	  49.2300000000
O	  27.0124000000	  32.2643000000	  48.0285000000
O	  28.2173000000	  32.0041000000	  50.1085000000
C	  27.7959000000	  29.8923000000	  48.7370000000
F	  28.9483000000	  30.0109000000	  48.1102000000
F	  26.9506000000	  29.3099000000	  47.9259000000
F	  27.8815000000	  29.1132000000	  49.7627000000
S	  24.4353000000	  31.6920000000	  49.6548000000
O	  24.4195000000	  32.9720000000	  48.9880000000
O	  23.5768000000	  31.4926000000	  50.8011000000
C	  23.8467000000	  30.4599000000	  48.5280000000
F	  24.5066000000	  30.5870000000	  47.3758000000
F	  23.9263000000	  29.1915000000	  48.9458000000
F	  22.6054000000	  30.7462000000	  48.2797000000
N	  27.8134000000	  30.7192000000	  54.9490000000
S	  27.2623000000	  31.8141000000	  55.8988000000
O	  27.9153000000	  33.0950000000	  55.8793000000
O	  25.8053000000	  31.8568000000	  56.0102000000
C	  27.8407000000	  31.2022000000	  57.5282000000
F	  27.6594000000	  32.1715000000	  58.4378000000
F	  29.1571000000	  30.9369000000	  57.4688000000
F	  27.2438000000	  30.1119000000	  58.0282000000
S	  27.3518000000	  30.5215000000	  53.4433000000
O	  28.4618000000	  30.5565000000	  52.5008000000
O	  26.0369000000	  30.8108000000	  53.0033000000
C	  27.2185000000	  28.6326000000	  53.5482000000
F	  26.7975000000	  28.0303000000	  52.4772000000
F	  28.3721000000	  28.0912000000	  53.9577000000
F	  26.3491000000	  28.2200000000	  54.4571000000
N	  20.9243000000	  29.2720000000	  52.3717000000
S	  22.4588000000	  28.8882000000	  52.6384000000
O	  23.0594000000	  28.2645000000	  51.5231000000
O	  23.2189000000	  29.9314000000	  53.2877000000
C	  22.3486000000	  27.5419000000	  53.9241000000
F	  23.5863000000	  27.0625000000	  54.1720000000
F	  21.6119000000	  26.5121000000	  53.5262000000
F	  21.8040000000	  27.9290000000	  55.0770000000
S	  20.2203000000	  30.4029000000	  53.1852000000
O	  20.6372000000	  31.7314000000	  52.7930000000
O	  20.0191000000	  30.1541000000	  54.6025000000
C	  18.5531000000	  30.4589000000	  52.5559000000
F	  18.5627000000	  30.4277000000	  51.1971000000
F	  17.8432000000	  29.3891000000	  52.9823000000
F	  18.0404000000	  31.5875000000	  52.7833000000
S	  23.4485000000	  32.7622000000	  54.1385000000
S	  24.6438000000	  33.8132000000	  52.7614000000
S	  26.0935000000	  35.0219000000	  53.7348000000
S	  25.7459000000	  39.1286000000	  56.4535000000
S	  24.8349000000	  40.9518000000	  56.7544000000
S	  25.7826000000	  42.1259000000	  58.3358000000
S	  24.5728000000	  37.7608000000	  55.3105000000
S	  25.6167000000	  37.0780000000	  53.5326000000
