43

Li	  25.0030000000	  48.5229000000	   1.8055900000
O	  23.4963000000	  48.7632000000	   2.8772500000
O	  22.0822000000	  48.8041000000	   4.5797500000
C	  22.2933000000	  49.1182000000	   2.2822400000
C	  21.2532000000	  49.0532000000	   3.4433100000
C	  23.2220000000	  48.2225000000	   4.1008700000
H	  22.3144000000	  50.0957000000	   1.8988200000
H	  22.0635000000	  48.4282000000	   1.4453400000
H	  20.6188000000	  49.9582000000	   3.4752700000
H	  20.5174000000	  48.1860000000	   3.3787200000
H	  22.9705000000	  47.1925000000	   3.9079900000
H	  24.0118000000	  48.2677000000	   4.8220200000
N	  23.4106000000	  52.3872000000	   1.4429200000
S	  22.5940000000	  53.2615000000	   0.3682363757
O	  22.6916000000	  54.6659000000	   0.5557363757
O	  22.5679000000	  52.7682000000	  -0.9973636243
C	  20.9148000000	  52.9146000000	   0.9858660000
F	  20.6246000000	  53.4381000000	   2.1566200000
F	  20.6356000000	  51.6026000000	   0.9895260000
F	  20.0842000000	  53.4387000000	   0.0672363757
S	  24.8922000000	  51.9498000000	   1.4056500000
O	  25.7472000000	  52.7792000000	   0.6123363757
O	  25.0185000000	  50.4972000000	   1.3609600000
C	  25.3756000000	  52.3336000000	   3.1208200000
F	  24.5287000000	  51.6495000000	   3.9033700000
F	  26.6280000000	  52.0226000000	   3.4594900000
F	  25.2223000000	  53.5899000000	   3.3632500000
S	  23.8532000000	  48.2477000000	  -3.4295636243
S	  24.2284000000	  48.8187000000	  -1.3020636243
S	  25.1622000000	  47.3882000000	  -0.1120636243
S	  23.8884000000	  43.9192000000	   3.9069000000
S	  24.0817000000	  44.5711000000	   5.9151800000
S	  25.6005000000	  43.6295000000	   7.0214400000
S	  24.8961000000	  45.4195000000	   2.6855900000
S	  23.8604000000	  46.2956000000	   1.0657300000
S	  34.2040000000	  45.7777000000	  -4.9018636243
S	  32.1411000000	  46.2571000000	  -4.7491636243
S	  31.8523000000	  48.2735000000	  -4.1805636243
S	  28.2607000000	  48.8406000000	  -0.5364636243
S	  28.1840000000	  49.5132000000	   1.4571800000
S	  26.8498000000	  48.5686000000	   2.7750900000
S	  29.9574000000	  49.7279000000	  -1.4653636243
S	  31.3539000000	  48.3405000000	  -2.0661636243
