64

Li	  55.2346000000	  27.2169000000	   3.6165800000
O	  53.3909000000	  27.4864000000	   5.0090700000
O	  51.3596000000	  28.1542000000	   5.5964300000
C	  52.9386000000	  26.5054000000	   6.0245900000
C	  51.4200000000	  26.8561000000	   6.1832700000
C	  52.5981000000	  28.5708000000	   5.2038700000
H	  53.1854000000	  25.4770000000	   5.8109300000
H	  53.4015000000	  26.7848000000	   6.9749400000
H	  50.8388000000	  26.0998000000	   5.7176000000
H	  51.0602000000	  26.8640000000	   7.2296200000
H	  52.9868000000	  29.1724000000	   6.0025200000
H	  52.5375000000	  29.1841000000	   4.3340300000
O	  56.3138000000	  26.4774000000	   5.5337300000
O	  57.3913000000	  25.9506000000	   7.3793300000
C	  57.3816000000	  25.6498000000	   5.0702800000
C	  58.1140000000	  25.2074000000	   6.3471800000
C	  56.1432000000	  26.0545000000	   6.8267600000
H	  57.0268000000	  24.7151000000	   4.5563500000
H	  58.0729000000	  26.0951000000	   4.4027600000
H	  58.0168000000	  24.1677000000	   6.5453500000
H	  59.1636319268	  25.5015000000	   6.2748800000
H	  55.5655000000	  26.8169000000	   7.3747500000
H	  55.6136000000	  25.1141000000	   6.8789400000
O	  52.8832000000	  23.6388000000	   3.1225300000
O	  54.1196000000	  25.4381000000	   2.9935100000
C	  52.2376000000	  24.4730000000	   2.2164200000
C	  52.9610000000	  25.8165000000	   2.3021200000
C	  54.1744000000	  24.0797000000	   3.1920800000
H	  52.3807000000	  24.1224000000	   1.2403500000
H	  51.1820000000	  24.5902000000	   2.4783600000
H	  53.2568000000	  26.1100000000	   1.3254100000
H	  52.4647000000	  26.5985000000	   2.8323700000
H	  54.5597000000	  23.7008000000	   4.1187800000
H	  54.6920000000	  23.7649000000	   2.3465600000
N	  54.8038000000	  30.9673000000	   5.7179800000
S	  54.1518000000	  32.3838000000	   5.6119200000
O	  55.0724000000	  33.4887000000	   5.3301700000
O	  52.9078000000	  32.3725000000	   4.8748900000
C	  53.7274000000	  32.6857000000	   7.3900700000
F	  52.9576000000	  31.7772000000	   7.9065400000
F	  53.1213000000	  33.8280000000	   7.5916200000
F	  54.7653000000	  32.7118000000	   8.2143400000
S	  56.0440000000	  30.3730000000	   4.9769100000
O	  56.7825000000	  31.3318000000	   4.1453200000
O	  55.8148000000	  29.0935000000	   4.4209500000
C	  57.1772000000	  30.0633000000	   6.3982700000
F	  57.8966000000	  31.0920000000	   6.6792100000
F	  56.4933000000	  29.8152000000	   7.5371800000
F	  58.0032000000	  29.0239000000	   6.2865600000
N	  56.3717000000	  28.6459000000	   0.2338363757
S	  54.9935000000	  29.1474000000	   0.6879363757
O	  54.5176000000	  28.4510000000	   1.8703700000
O	  54.6758000000	  30.5513000000	   0.6145363757
C	  53.8752000000	  28.4965000000	  -0.5490636243
F	  53.9566000000	  27.1857000000	  -0.5678636243
F	  54.0149000000	  28.8982000000	  -1.7717636243
F	  52.6535000000	  28.8095000000	  -0.2416636243
S	  57.3708000000	  27.6660000000	   1.0061900000
O	  56.8846000000	  27.0859000000	   2.2082700000
O	  58.7886000000	  28.0515000000	   0.9667710000
C	  57.3427000000	  26.2432000000	  -0.1249636243
F	  56.1516000000	  25.9061000000	  -0.4368636243
F	  58.0009000000	  26.4779000000	  -1.2763636243
F	  57.9451000000	  25.1690000000	   0.3643363757
