53

Li	  14.2454000000	  27.2348000000	  55.1015000000
O	  14.3628000000	  27.1848000000	  50.8728000000
O	  14.8165000000	  28.0262000000	  52.9629000000
C	  15.6145000000	  26.8389000000	  51.1124000000
C	  15.8310000000	  27.1084000000	  52.6564000000
C	  14.0922000000	  28.2847000000	  51.8003000000
H	  15.6379000000	  25.7775000000	  50.8785000000
H	  16.3944000000	  27.4339000000	  50.5813000000
H	  15.6720000000	  26.1508000000	  53.1009000000
H	  16.8273000000	  27.4857000000	  52.9686000000
H	  14.3413000000	  29.2161000000	  51.2945000000
H	  12.9815000000	  28.3325000000	  52.0305000000
O	  16.7243000000	  29.4353000000	  57.5601000000
O	  15.8058000000	  28.0044000000	  56.1852000000
C	  17.2227000000	  28.2528000000	  58.0353000000
C	  16.1710000000	  27.2934000000	  57.4419000000
C	  16.3823000000	  29.2187000000	  56.2242000000
H	  18.2689000000	  28.0815000000	  57.6685000000
H	  17.2067000000	  28.2054000000	  59.1742000000
H	  16.5376000000	  26.2151000000	  57.3400000000
H	  15.3292000000	  27.3512000000	  58.1350000000
H	  15.7275000000	  30.0451000000	  55.9865000000
H	  17.2809000000	  29.1952000000	  55.5122000000
N	  11.4578000000	  29.4446000000	  56.5021000000
S	  12.1107000000	  29.9289000000	  55.1613000000
O	  13.4198000000	  29.4441000000	  54.8584000000
O	  11.1193000000	  30.0788000000	  54.0909000000
C	  12.4469000000	  31.6543000000	  55.7349000000
F	  11.3946000000	  32.3188000000	  56.1437000000
F	  13.0543000000	  32.3829000000	  54.7816000000
F	  13.2357000000	  31.6161000000	  56.7683000000
S	  11.6365000000	  28.0254000000	  57.1383000000
O	  12.9758000000	  27.4081000000	  56.9574000000
O	  10.5112000000	  27.1826000000	  56.8287000000
C	  11.4836000000	  28.4712000000	  58.9422000000
F	  10.4580000000	  29.3391000000	  59.2321026243
F	  11.1722000000	  27.4294000000	  59.6661236243
F	  12.5622000000	  28.9600000000	  59.4837936243
N	  12.7908000000	  24.1851000000	  54.4980000000
S	  11.9071000000	  25.4033000000	  54.0664000000
O	  10.5169000000	  25.2226000000	  54.4968000000
O	  12.5340000000	  26.7121000000	  54.1418000000
C	  11.6181000000	  25.0715000000	  52.2649000000
F	  12.7744000000	  24.8397000000	  51.5757000000
F	  11.0970000000	  26.1301000000	  51.6435000000
F	  10.7644000000	  24.0224000000	  52.0101000000
S	  14.2193000000	  24.1091000000	  55.1413000000
O	  14.6380000000	  25.2987000000	  55.7387000000
O	  15.1207000000	  23.4274000000	  54.2882000000
C	  13.9896000000	  22.9041000000	  56.6237000000
F	  15.1311000000	  22.6048000000	  57.2445000000
F	  13.2150000000	  23.4064000000	  57.5640000000
F	  13.4874000000	  21.7566000000	  56.4057000000
