42

Li	  50.8547000000	  36.0355000000	  34.1275000000
O	  49.5551000000	  36.9245000000	  33.1514000000
O	  47.9306000000	  37.9770000000	  31.9498000000
C	  48.3382000000	  36.5153000000	  33.6804000000
C	  47.2554000000	  37.4068000000	  33.0109000000
C	  49.1531000000	  37.2985000000	  31.8647000000
H	  47.9503000000	  35.5191000000	  33.6875000000
H	  48.4652000000	  36.8731000000	  34.7102000000
H	  46.4163000000	  36.7718000000	  32.7007000000
H	  46.8504000000	  38.2114000000	  33.6594000000
H	  49.8994000000	  38.0062000000	  31.5428000000
H	  49.0797000000	  36.4876000000	  31.1602000000
N	  53.1560000000	  33.3246000000	  33.4840000000
S	  53.0779000000	  33.6358000000	  35.0410000000
O	  54.3914000000	  33.6049000000	  35.6364000000
O	  52.1612000000	  34.6793000000	  35.3848000000
C	  52.2147000000	  32.0616000000	  35.5848000000
F	  53.0689000000	  31.0570000000	  35.6601000000
F	  51.1387000000	  31.7416000000	  34.8189000000
F	  51.6962000000	  32.0976000000	  36.8417000000
S	  52.2085000000	  33.7306000000	  32.3027000000
O	  51.6431000000	  35.0741000000	  32.4620000000
O	  51.2386000000	  32.6523000000	  32.0789000000
C	  53.2168000000	  33.8290000000	  30.7250000000
F	  53.9310000000	  32.8032000000	  30.6288000000
F	  52.5067000000	  33.8038000000	  29.6549000000
F	  54.0493000000	  34.8730000000	  30.5782000000
N	  51.6482000000	  38.5109000000	  36.7819000000
S	  50.6187000000	  37.4228000000	  37.2859000000
O	  49.7131000000	  37.8871000000	  38.3218000000
O	  50.1780000000	  36.5581000000	  36.2072000000
C	  51.7316000000	  36.2394000000	  38.1721000000
F	  52.8835000000	  36.0113000000	  37.5722000000
F	  51.1178000000	  35.1124000000	  38.3653000000
F	  52.1086000000	  36.6917000000	  39.3945000000
S	  52.1426000000	  38.7815000000	  35.3091000000
O	  51.9113000000	  37.6973000000	  34.3705000000
O	  53.3353000000	  39.5719000000	  35.2677000000
C	  50.8771000000	  40.0710000000	  34.9123000000
F	  50.9276000000	  41.0594000000	  35.8229000000
F	  51.1356000000	  40.6025000000	  33.7579000000
F	  49.6956000000	  39.5420000000	  34.8436000000
