46

Li	   8.0894400000	  53.6999000000	  29.4032000000
O	   6.3789700000	  53.4582000000	  30.2201000000
O	   5.6420400000	  51.3732000000	  29.8395000000
C	   5.7771700000	  53.0647000000	  31.4393000000
C	   5.6617200000	  51.5572000000	  31.2487000000
C	   5.7796200000	  52.5787000000	  29.2514000000
H	   6.3442300000	  53.2940000000	  32.2975000000
H	   4.7910800000	  53.5211000000	  31.5197000000
H	   6.5375000000	  51.0550000000	  31.6700000000
H	   4.7252900000	  51.1411000000	  31.6530000000
H	   4.7904400000	  52.9605000000	  28.9612000000
H	   6.4358600000	  52.4234000000	  28.4163000000
O	  10.0486000000	  50.0600000000	  28.6703000000
O	   9.2986800000	  52.2072000000	  28.9072000000
C	  10.6792000000	  50.8260000000	  27.6097000000
C	  10.5108000000	  52.2284000000	  28.2068000000
C	   9.0218900000	  50.8973000000	  29.1849000000
H	  11.6971000000	  50.5021000000	  27.3104000000
H	  10.1465000000	  50.8063000000	  26.7021000000
H	  11.2532000000	  52.5172000000	  28.9800000000
H	  10.5986000000	  52.9942000000	  27.4582000000
H	   8.0236400000	  50.5962000000	  28.7531000000
H	   8.9417800000	  50.8432000000	  30.2857000000
N	  11.3678000000	  53.1482000000	  31.5805000000
S	  10.2213000000	  54.1344000000	  31.9959000000
O	  10.7033000000	  55.4104000000	  32.4278000000
O	   9.2071800000	  54.0107000000	  31.0288000000
C	   9.5277100000	  53.3813000000	  33.4763000000
F	   8.4751100000	  54.0848000000	  33.9018000000
F	  10.4191000000	  53.3421000000	  34.4782000000
F	   9.0705800000	  52.1702000000	  33.2894000000
S	  12.8412000000	  53.2509000000	  32.1353000000
O	  13.0503000000	  53.9035000000	  33.4012000000
O	  13.7874000000	  53.4968000000	  31.0237000000
C	  13.0477000000	  51.4399000000	  32.5470000000
F	  13.0463000000	  50.7177000000	  31.4516000000
F	  14.2111000000	  51.2039000000	  33.1507000000
F	  12.1161000000	  50.9734000000	  33.4108000000
S	  15.9863000000	  55.2942000000	  34.0698000000
S	  15.8121000000	  56.9582000000	  32.9078000000
S	  14.0721000000	  57.1662000000	  31.7999000000
S	  11.2803000000	  56.8120000000	  28.2383000000
S	   9.8468300000	  55.7361000000	  27.1983000000
S	   7.8882700000	  55.6628000000	  28.2238000000
S	  12.8502000000	  55.5738000000	  28.7747000000
S	  14.3757000000	  56.6791000000	  29.6964000000
