42

Li	  30.1139000000	  53.8076000000	   7.9767200000
O	  30.6549000000	  55.5243000000	   7.2071700000
O	  31.6239000000	  57.3347000000	   6.5702300000
C	  29.6260000000	  56.2537000000	   6.5884600000
C	  30.4046000000	  57.3801000000	   5.9255500000
C	  31.4683000000	  56.4753000000	   7.6201300000
H	  29.1682000000	  55.7368000000	   5.7721300000
H	  28.9467000000	  56.6030000000	   7.3721700000
H	  30.5683000000	  57.1988000000	   4.8418000000
H	  29.8285000000	  58.3228000000	   6.0719300000
H	  31.0863000000	  57.0433000000	   8.4034900000
H	  32.3978000000	  56.0693000000	   7.8695800000
N	  26.2640000000	  53.5982000000	  10.0353000000
S	  27.0668000000	  54.4576000000	   8.9797800000
O	  26.9840000000	  55.8997000000	   9.1521900000
O	  28.3687000000	  53.8466000000	   8.6473700000
C	  25.9831000000	  54.2498000000	   7.5216000000
F	  26.6991000000	  54.5249000000	   6.3934100000
F	  24.8847000000	  54.9465000000	   7.5057800000
F	  25.6000000000	  52.9699000000	   7.3461900000
S	  25.8893000000	  54.1040000000	  11.4619000000
O	  24.4858000000	  53.9518000000	  11.7873000000
O	  26.5640000000	  55.2755000000	  11.9995000000
C	  26.6260000000	  52.7466000000	  12.5510000000
F	  26.2294000000	  51.5087000000	  12.1925000000
F	  27.9410000000	  52.6904000000	  12.4152000000
F	  26.3008000000	  52.9769000000	  13.8072000000
N	  32.0132000000	  52.5214000000	   5.3486600000
S	  32.7323000000	  53.1506000000	   6.6225600000
O	  33.4413000000	  54.3578000000	   6.2451300000
O	  31.9739000000	  53.2433000000	   7.8816900000
C	  34.0548000000	  51.8835000000	   6.8518400000
F	  34.8411000000	  51.7544000000	   5.7352800000
F	  33.5030000000	  50.6764000000	   7.0239500000
F	  34.8252000000	  52.1265000000	   7.8581700000
S	  30.4483000000	  52.4097000000	   5.1441500000
O	  30.1100000000	  52.6096000000	   3.7721900000
O	  29.6570000000	  52.8467000000	   6.2477600000
C	  30.2781000000	  50.5610000000	   5.3352300000
F	  30.5724000000	  50.0745000000	   6.5214700000
F	  28.9896000000	  50.3201000000	   5.2050500000
F	  30.8295000000	  49.8072000000	   4.4456300000
