57

Li	  36.5243000000	  48.8050000000	  49.2434000000
O	  33.5269000000	  50.8193000000	  47.1004000000
O	  35.1839000000	  49.9536000000	  48.3680000000
C	  34.5460000000	  51.6999000000	  46.8830000000
C	  35.6045000000	  51.2390000000	  47.9360000000
C	  34.1665000000	  49.7104000000	  47.5507000000
H	  35.0019000000	  51.5369000000	  45.8555000000
H	  34.3487000000	  52.7773000000	  46.9556000000
H	  36.6890000000	  51.3882000000	  47.7416000000
H	  35.3714000000	  51.8891000000	  48.7921000000
H	  33.5230000000	  48.9630000000	  47.9952000000
H	  34.7014000000	  49.2630000000	  46.6921000000
N	  34.2503000000	  49.6738000000	  52.4120000000
S	  33.8581000000	  48.2829000000	  51.7480000000
O	  34.6210000000	  47.9344000000	  50.5822000000
O	  33.7566000000	  47.2207000000	  52.7382000000
C	  32.1885000000	  48.6188000000	  51.1626000000
F	  31.5217000000	  49.1273000000	  52.1817000000
F	  31.5826000000	  47.4784000000	  50.8574000000
F	  32.0282000000	  49.3675000000	  50.1054000000
S	  35.6341000000	  50.4098000000	  52.1430000000
O	  36.3229000000	  50.1954000000	  50.8465000000
O	  36.4660000000	  50.4997000000	  53.3290000000
C	  35.1122000000	  52.1458000000	  52.0067000000
F	  34.3653000000	  52.5315000000	  52.9892000000
F	  36.1747000000	  52.9179000000	  52.0635000000
F	  34.4225000000	  52.3865000000	  50.9660000000
N	  38.3282000000	  45.0738000000	  51.5727000000
S	  37.7178000000	  46.4418000000	  51.8063000000
O	  37.8274000000	  47.3205000000	  50.6693000000
O	  36.5773000000	  46.5087000000	  52.6918000000
C	  38.9900000000	  47.1537000000	  52.9165000000
F	  38.6684000000	  48.3155000000	  53.4199000000
F	  40.2124000000	  47.2022000000	  52.3992000000
F	  39.1350000000	  46.4582000000	  54.0073000000
S	  37.5203000000	  43.7147000000	  51.5271000000
O	  37.7856000000	  42.9549000000	  50.3214000000
O	  36.1655000000	  43.7814000000	  52.0759000000
C	  38.4286000000	  42.8732000000	  52.8456000000
F	  37.7996000000	  41.7881000000	  53.1750000000
F	  39.6317000000	  42.4754000000	  52.5715000000
F	  38.5390000000	  43.6738000000	  53.9096000000
N	  38.6674000000	  46.7023000000	  47.3648000000
S	  37.1960000000	  46.1475000000	  47.4054000000
O	  37.1237000000	  44.7515000000	  47.5860000000
O	  36.2221000000	  46.9350000000	  48.1027000000
C	  36.7269000000	  46.4161000000	  45.6862000000
F	  36.7355000000	  47.6981000000	  45.4467000000
F	  35.5789000000	  45.7797000000	  45.4712000000
F	  37.6137000000	  45.8982000000	  44.8613000000
S	  39.3159000000	  48.0399000000	  47.9227000000
O	  40.3871000000	  47.6225000000	  48.7777000000
O	  38.3371000000	  49.0024000000	  48.3539000000
C	  40.0889000000	  48.7100000000	  46.3689000000
F	  39.2335000000	  48.7923000000	  45.3086000000
F	  40.4493000000	  49.9848000000	  46.5522000000
F	  41.0878000000	  47.9415000000	  45.9770000000
