49

Li	  13.1378000000	  43.1313000000	  47.4538000000
O	  13.0717000000	  43.4540000000	  43.4067000000
O	  13.5814000000	  43.3217000000	  45.5912000000
C	  14.3890000000	  43.0828000000	  43.5736000000
C	  14.7010000000	  43.6805000000	  44.9096000000
C	  12.5389000000	  43.2696000000	  44.6205000000
H	  14.4351000000	  41.9855000000	  43.5951000000
H	  14.9999000000	  43.4684000000	  42.7344000000
H	  15.6719000000	  43.2418000000	  45.3472000000
H	  14.7705000000	  44.7695000000	  44.8265000000
H	  11.7648000000	  44.0653000000	  44.7615000000
H	  12.0392000000	  42.2993000000	  44.6574000000
O	  11.7420000000	  44.4012000000	  48.4984000000
O	  11.0704000000	  42.7607000000	  47.3990000000
C	  11.3811000000	  43.5086000000	  49.5763000000
C	  10.9338000000	  42.2591000000	  48.7282000000
C	  10.8851000000	  44.0754000000	  47.5418000000
H	  12.1402000000	  43.2204000000	  50.2166000000
H	  10.5834000000	  43.9989000000	  50.2069000000
H	  11.5265000000	  41.3502000000	  48.9028000000
H	   9.8746100000	  42.1062000000	  48.9284000000
H	   9.8357700000	  44.3934000000	  47.8634000000
H	  11.1453000000	  44.5766000000	  46.6172000000
O	  14.5933000000	  39.4324000000	  46.6040000000
O	  14.5246000000	  41.4030000000	  47.6187000000
C	  15.8813000000	  40.0247000000	  46.4719000000
C	  15.8740000000	  41.1114000000	  47.5241000000
C	  13.8568000000	  40.2800000000	  47.4487000000
H	  16.7206000000	  39.3041000000	  46.4532000000
H	  15.9262000000	  40.3848000000	  45.4722000000
H	  16.0282000000	  40.7373000000	  48.4951000000
H	  16.5256000000	  41.9205000000	  47.2748000000
H	  12.8448000000	  40.4017000000	  47.0417000000
H	  13.7351000000	  39.7635000000	  48.3532000000
N	  15.2577000000	  45.6719000000	  47.2699000000
S	  14.6182000000	  46.9756000000	  46.8384000000
O	  13.5563000000	  46.7967000000	  45.8792000000
O	  14.3907000000	  47.9206000000	  47.8840000000
C	  16.0259000000	  47.7592000000	  45.8493000000
F	  15.7933000000	  49.0056000000	  45.5983000000
F	  16.2879000000	  47.2056000000	  44.6770000000
F	  17.1710000000	  47.8235000000	  46.5246000000
S	  15.0956000000	  45.0352000000	  48.6910000000
O	  14.3746000000	  43.8383000000	  48.6906000000
O	  14.6317000000	  46.0151000000	  49.6679000000
C	  16.6933000000	  44.6367000000	  49.2167000000
F	  17.4354000000	  44.0870000000	  48.2609000000
F	  17.4079000000	  45.7133000000	  49.4915000000
F	  16.7175000000	  43.7665000000	  50.2510000000
