35

Li	  43.1139000000	  26.3940000000	  20.4739000000
O	  41.2689000000	  26.4296000000	  20.9550000000
O	  40.8305000000	  26.7481000000	  23.1469000000
C	  40.1436000000	  27.2792000000	  20.9596000000
C	  40.0945000000	  27.7930000000	  22.5098000000
C	  41.2091000000	  25.8071000000	  22.1879000000
H	  40.3402000000	  28.0528000000	  20.2373000000
H	  39.1408000000	  26.7451000000	  20.7664000000
H	  40.5630000000	  28.7489000000	  22.6806000000
H	  39.1335000000	  27.8468000000	  22.9713000000
H	  40.3812000000	  25.0361000000	  22.2057000000
H	  42.2295000000	  25.4195000000	  22.4746000000
N	  43.5652000000	  24.4691000000	  17.5847000000
S	  44.1907000000	  23.9724000000	  18.9406000000
O	  45.6596000000	  23.9669000000	  18.8237000000
O	  43.6418000000	  24.5638000000	  20.0938000000
C	  43.4304000000	  22.3095000000	  18.9029000000
F	  42.0435000000	  22.4019000000	  18.7454000000
F	  43.6647000000	  21.6696000000	  20.0489000000
F	  43.8749000000	  21.5821000000	  17.8839000000
S	  42.9158000000	  25.8813000000	  17.4050000000
O	  43.1395000000	  26.3459000000	  16.0505000000
O	  43.0380000000	  26.8628000000	  18.4575000000
C	  41.0276000000	  25.4500000000	  17.4501000000
F	  40.6383000000	  24.7091000000	  16.4284000000
F	  40.7743000000	  24.8241000000	  18.5370000000
F	  40.2614000000	  26.5322000000	  17.4255000000
S	  44.8226000000	  26.8415000000	  21.8270000000
S	  43.9064000000	  28.6926000000	  22.2349000000
S	  42.7729000000	  29.3672000000	  20.5223000000
S	  46.7631000000	  29.1581000000	  17.8102000000
S	  46.7160000000	  27.0685000000	  18.0837000000
S	  46.6132000000	  25.9684000000	  16.3216000000
S	  44.8819000000	  29.9610000000	  17.6171000000
S	  44.0376000000	  30.6878000000	  19.3335000000
