54

Li	  24.0836000000	  31.1322000000	  52.5625000000
N	  25.7669000000	  29.2839000000	  49.6238000000
S	  26.3529000000	  29.1425000000	  48.1999000000
O	  25.4902000000	  28.5018000000	  47.2697000000
O	  26.9753000000	  30.4052000000	  47.8914000000
C	  27.7494000000	  28.0290000000	  48.4264000000
F	  27.3407000000	  26.7834000000	  48.8047000000
F	  28.5297000000	  28.4146000000	  49.3396000000
F	  28.4422000000	  27.8307000000	  47.3124000000
S	  24.2562000000	  28.9844000000	  50.0473000000
O	  23.3651000000	  28.6376000000	  48.9909000000
O	  23.7304000000	  29.9349000000	  51.0621000000
C	  24.5088000000	  27.3970000000	  50.9344000000
F	  23.4029000000	  26.9591000000	  51.5232000000
F	  24.8470000000	  26.3775000000	  50.0766000000
F	  25.4135000000	  27.4469000000	  51.8593000000
N	  27.7230000000	  31.5822000000	  54.0788000000
S	  28.4379000000	  32.1136000000	  55.3581000000
O	  27.5206000000	  32.4730000000	  56.4436000000
O	  29.6133000000	  31.3575000000	  55.6943000000
C	  29.1680000000	  33.7151000000	  54.8443000000
F	  30.0745000000	  33.6023000000	  53.8656000000
F	  29.7352000000	  34.3001000000	  55.8995000000
F	  28.1629000000	  34.4516000000	  54.3976000000
S	  26.8597000000	  30.2210000000	  54.0500000000
O	  25.7871000000	  30.3034000000	  53.1059000000
O	  26.6993000000	  29.6187000000	  55.3242000000
C	  28.0836000000	  29.1598000000	  53.2438000000
F	  27.8023000000	  27.8566000000	  53.1466000000
F	  28.2260000000	  29.6134000000	  52.0205000000
F	  29.2688000000	  29.2846000000	  53.9540000000
N	  20.9451000000	  30.5617000000	  54.4867000000
S	  22.2566000000	  30.0816000000	  55.1763000000
O	  23.3234000000	  29.9563000000	  54.2467000000
O	  22.5739000000	  30.5345000000	  56.4915000000
C	  21.9670000000	  28.3343000000	  55.6339000000
F	  20.8922000000	  28.1595000000	  56.4050000000
F	  22.8873000000	  27.8785000000	  56.3843000000
F	  21.9826000000	  27.5452000000	  54.5700000000
S	  20.0985000000	  31.8279000000	  54.8723000000
O	  19.9897000000	  32.7890000000	  53.7724000000
O	  20.4573000000	  32.3671000000	  56.1603000000
C	  18.4681000000	  31.0151000000	  54.9986000000
F	  18.6301000000	  29.9069000000	  55.7024000000
F	  17.5772000000	  31.8431000000	  55.6692000000
F	  17.8697000000	  30.7659000000	  53.8240000000
S	  22.9922000000	  32.8797000000	  52.0787000000
S	  24.1590000000	  33.3440000000	  53.8031000000
S	  24.1602000000	  35.3335000000	  54.3349000000
S	  27.1923000000	  39.0610000000	  56.5534000000
S	  25.8698000000	  40.1924000000	  57.7796000000
S	  25.8734000000	  42.2333000000	  57.1131000000
S	  26.6344000000	  37.0439000000	  56.4257000000
S	  26.0087000000	  36.4259000000	  54.3782000000
