43

Li	  49.7511000000	  50.2194000000	  52.7902000000
O	  50.0992000000	  51.6316000000	  53.8173000000
O	  51.9530000000	  52.2827000000	  54.8283000000
C	  50.3041000000	  52.9402000000	  53.2954000000
C	  51.7629000000	  53.1748000000	  53.7917000000
C	  50.7936000000	  51.5911000000	  55.0353000000
H	  50.1159000000	  52.9462000000	  52.2198000000
H	  49.7352000000	  53.7447000000	  53.7251000000
H	  52.3816000000	  52.8877000000	  52.9924000000
H	  51.9804000000	  54.1142000000	  54.1547000000
H	  50.2534000000	  52.1163000000	  55.8954000000
H	  50.9956000000	  50.4992000000	  55.2595000000
N	  49.6967000000	  48.5211000000	  56.7677000000
S	  49.4752000000	  47.8624000000	  58.1585000000
O	  48.1510000000	  47.8277000000	  58.6972000000
O	  50.3541000000	  46.8145000000	  58.4328000000
C	  50.1666000000	  49.1741000000	  59.1929376243
F	  49.6373000000	  50.3929000000	  59.0540000000
F	  51.4338000000	  49.3646000000	  59.0128000000
F	  50.0070000000	  48.8980000000	  60.4950136243
S	  48.7171000000	  48.3515000000	  55.5923000000
O	  48.0667000000	  47.0723000000	  55.6493000000
O	  49.2989000000	  48.7760000000	  54.3683000000
C	  47.3490000000	  49.5921000000	  55.8854000000
F	  47.7386000000	  50.8778000000	  55.8830000000
F	  46.4687000000	  49.4070000000	  54.9644000000
F	  46.8097000000	  49.3428000000	  57.0529000000
S	  47.7208000000	  50.5807000000	  52.1823000000
S	  46.5542000000	  52.3907000000	  52.4180000000
S	  46.4952000000	  53.6644000000	  50.7826000000
S	  42.0633000000	  55.2478000000	  51.3680000000
S	  40.1735000000	  54.3792000000	  51.0403000000
S	  39.8994000000	  52.4793000000	  51.9069000000
S	  43.5137000000	  55.0886000000	  49.8719000000
S	  44.6907000000	  53.3287000000	  49.7182000000
S	  51.8197000000	  49.6225000000	  52.3048000000
S	  50.7720000000	  50.2085000000	  50.5978000000
S	  52.0092000000	  51.3572000000	  49.1759000000
S	  51.7717000000	  56.0163000000	  46.7415000000
S	  50.4984000000	  57.6635000000	  46.6654000000
S	  51.4029000000	  59.2113860402	  47.6937000000
S	  50.8898000000	  54.1240000000	  47.5130000000
S	  51.5688000000	  53.4106000000	  49.2663000000
