28

Li	  25.1098000000	  37.4583000000	  57.7126000000
O	  25.8596000000	  37.8129000000	  59.5006936243
O	  26.8507000000	  38.0176000000	  61.4031736243
C	  26.7988000000	  38.8000000000	  59.2454306243
C	  27.2734000000	  39.1821000000	  60.6266736243
C	  25.6970000000	  37.5471000000	  60.8217936243
H	  27.6607000000	  38.3599000000	  58.7256000000
H	  26.4421000000	  39.4730000000	  58.4855000000
H	  28.4011000000	  39.3191000000	  60.6843536243
H	  26.7758000000	  40.1411000000	  60.9021436243
H	  24.8456000000	  38.1676000000	  61.0691536243
H	  25.3321000000	  36.5296000000	  60.9996436243
S	  32.0554000000	  37.7434000000	  51.9266000000
S	  30.0898000000	  36.9808000000	  52.1462000000
S	  28.6581000000	  38.1568000000	  51.2120000000
S	  24.5717000000	  38.7562000000	  54.3934000000
S	  24.2175000000	  36.7809000000	  55.1768000000
S	  25.9129000000	  36.1091000000	  56.3117000000
S	  25.4127000000	  38.6581000000	  52.4541000000
S	  27.3810000000	  39.3673000000	  52.4902000000
S	  24.4093000000	  30.0204000000	  60.8618636243
S	  22.5294000000	  30.9794000000	  60.7616236243
S	  21.8913000000	  31.4747000000	  58.7835000000
S	  23.2983000000	  35.6650000000	  58.8067000000
S	  22.7205000000	  37.6457000000	  59.1594000000
S	  23.7138000000	  39.0420000000	  57.9370000000
S	  22.0436000000	  34.5955000000	  57.4911000000
S	  20.8765000000	  33.2936000000	  58.5637000000
