39

Li	  48.7929000000	  48.1696000000	  51.4923000000
O	  49.2562000000	  44.8089000000	  53.6917000000
O	  49.2826000000	  46.1042000000	  51.9383000000
C	  48.3549000000	  44.1823000000	  52.7991000000
C	  48.1698000000	  45.2567000000	  51.7730000000
C	  50.0584000000	  45.6013000000	  52.9795000000
H	  48.8781000000	  43.3080000000	  52.3183000000
H	  47.4361000000	  43.8023000000	  53.2074000000
H	  47.9687000000	  44.8400000000	  50.8152000000
H	  47.2572000000	  45.7503000000	  52.0115000000
H	  50.5557000000	  46.4336000000	  53.5419000000
H	  50.8841000000	  44.9247000000	  52.5228000000
O	  48.4837000000	  46.9485000000	  47.3872000000
O	  48.7746000000	  47.2357000000	  49.5818000000
C	  49.6828000000	  46.2511000000	  47.7816000000
C	  50.0895000000	  47.0408000000	  49.0495000000
C	  48.0816000000	  47.6389000000	  48.4545000000
H	  49.3629000000	  45.1962000000	  47.9937000000
H	  50.4100000000	  46.4362000000	  46.9980000000
H	  50.7284000000	  46.4204000000	  49.6672000000
H	  50.5738000000	  48.0028000000	  48.8956000000
H	  48.3877000000	  48.6633000000	  48.3279000000
H	  47.0451000000	  47.4946000000	  48.6113000000
S	  50.0255000000	  48.9680000000	  53.1048000000
S	  49.7811000000	  50.1314000000	  51.4242000000
S	  50.3067000000	  52.1360000000	  51.7304000000
S	  45.5552000000	  52.8043000000	  52.9350000000
S	  45.3585000000	  51.7510000000	  54.8135000000
S	  43.4186000000	  51.9330000000	  55.6608000000
S	  47.2905000000	  54.0049000000	  52.8406000000
S	  48.6660000000	  53.3914000000	  51.3304000000
S	  42.3447000000	  42.3586000000	  55.9571000000
S	  41.7257000000	  44.2895000000	  56.5271000000
S	  43.0596000000	  45.3582000000	  57.7355000000
S	  46.1305000000	  47.0780000000	  54.4888000000
S	  46.7178000000	  48.9427000000	  53.5014000000
S	  46.6870000000	  48.7273000000	  51.3522000000
S	  45.8417000000	  47.3793000000	  56.5486000000
S	  43.7425000000	  47.1970000000	  56.9926000000
