60

Li	  16.1665000000	  57.5926000000	  39.1759000000
O	  14.4195000000	  58.3591000000	  39.5990000000
O	  12.2498000000	  58.2285000000	  40.1647000000
C	  14.1877000000	  59.2100990402	  40.7027000000
C	  13.0266000000	  58.4169000000	  41.3699000000
C	  13.1992000000	  57.8413000000	  39.2438000000
H	  14.9988000000	  59.3865660402	  41.3744000000
H	  13.8809000000	  60.1261260402	  40.3865000000
H	  13.3339000000	  57.3995000000	  41.6322000000
H	  12.5064000000	  58.9462000000	  42.2269000000
H	  12.8830000000	  58.0757000000	  38.2508000000
H	  13.1798000000	  56.7575000000	  39.2215000000
O	  15.8136000000	  58.2453000000	  37.3622000000
O	  15.8822000000	  60.0080660402	  35.9734000000
C	  15.6608000000	  57.7642000000	  36.0597000000
C	  15.8377000000	  58.9158000000	  35.0744000000
C	  15.4024000000	  59.5871160402	  37.2194000000
H	  16.2585000000	  56.9596000000	  35.9047000000
H	  14.7227000000	  57.3842000000	  35.6797000000
H	  16.7853000000	  58.8287000000	  34.5699000000
H	  15.0614000000	  58.9948000000	  34.3133000000
H	  14.3160000000	  59.6246060402	  37.2461000000
H	  15.6807000000	  60.1830960402	  38.0455000000
O	  19.1259000000	  60.1742060402	  39.1079000000
O	  17.8473000000	  58.4716000000	  39.5808000000
C	  19.0369000000	  60.2016360402	  40.5008000000
C	  18.1964000000	  59.0014000000	  40.8138000000
C	  18.8614000000	  58.9132000000	  38.7449000000
H	  20.0481000000	  60.1389360402	  40.8736000000
H	  18.6127000000	  61.2076660402	  40.8849000000
H	  18.7529000000	  58.1950000000	  41.2171000000
H	  17.3517000000	  59.0835000000	  41.4529000000
H	  18.5384000000	  58.9409000000	  37.6665000000
H	  19.7994000000	  58.2986000000	  38.8630000000
O	  17.0013000000	  55.9629000000	  38.6973000000
O	  18.3457000000	  54.2690000000	  38.6486000000
C	  16.3209000000	  55.0047000000	  37.9712000000
C	  17.0026000000	  53.7855000000	  38.5148000000
C	  18.3117000000	  55.6136000000	  38.7103000000
H	  15.2878000000	  54.9329000000	  38.2027000000
H	  16.4978000000	  55.0532000000	  36.8889000000
H	  16.6024000000	  53.5838000000	  39.4572000000
H	  16.8498000000	  52.8246000000	  38.0120000000
H	  18.6817000000	  56.2228000000	  37.8512000000
H	  18.7792000000	  55.9132000000	  39.6029000000
N	  17.7612000000	  55.1040000000	  42.0030000000
S	  16.3403000000	  55.7843000000	  42.1607000000
O	  15.9316000000	  56.7081000000	  41.1235000000
O	  15.3575000000	  54.8334000000	  42.6146000000
C	  16.6963000000	  56.9152000000	  43.6064000000
F	  17.9073000000	  57.4551000000	  43.5012000000
F	  16.6782000000	  56.2841000000	  44.7375000000
F	  15.7794000000	  57.8807000000	  43.6763000000
S	  18.3042000000	  53.6857000000	  42.5065000000
O	  19.3277000000	  53.1951000000	  41.5990000000
O	  17.3174000000	  52.7907000000	  43.0223000000
C	  19.3446000000	  54.1309000000	  43.9296000000
F	  20.1483000000	  53.1853000000	  44.3242000000
F	  20.1621000000	  55.1027000000	  43.6676000000
F	  18.6218000000	  54.5809000000	  44.9999000000
