43

Li	  26.2278000000	  48.3222000000	   4.0133900000
O	  24.7813000000	  48.7418000000	   5.1059800000
O	  23.5232000000	  48.8899000000	   7.0039500000
C	  23.6351000000	  49.5191000000	   4.8821200000
C	  22.5988000000	  48.9775000000	   5.9275100000
C	  24.6884000000	  48.3749000000	   6.4397300000
H	  23.8418000000	  50.5625000000	   5.1680600000
H	  23.2702000000	  49.4701000000	   3.8669000000
H	  21.8073000000	  49.6148000000	   6.2829000000
H	  22.1731000000	  47.9749000000	   5.6194400000
H	  24.6543000000	  47.2489000000	   6.5748900000
H	  25.5258000000	  48.6806000000	   6.9209400000
N	  24.4784000000	  52.2083000000	   2.8924500000
S	  23.7022000000	  52.7744000000	   1.6432700000
O	  23.2194000000	  54.1601000000	   1.7432800000
O	  24.0979000000	  52.2920000000	   0.3644363757
C	  21.9620000000	  51.9917000000	   1.8099300000
F	  21.4525000000	  52.0913000000	   2.9783300000
F	  21.9855000000	  50.6880000000	   1.6857200000
F	  21.0168000000	  52.3590000000	   0.9627030000
S	  25.8995000000	  51.5486000000	   2.7929800000
O	  26.8744000000	  52.0801000000	   1.8013900000
O	  25.9162000000	  50.0829000000	   3.0244100000
C	  26.6119000000	  52.0306000000	   4.3790800000
F	  27.9190000000	  52.1718000000	   4.1393500000
F	  26.0723000000	  53.1368000000	   4.8910500000
F	  26.5163000000	  51.1416000000	   5.4047300000
S	  23.9493000000	  47.1539000000	  -1.6753636243
S	  24.7112000000	  48.3854000000	  -0.0192636243
S	  25.9477000000	  47.2508000000	   1.3083100000
S	  25.0850000000	  44.4400000000	   5.6949900000
S	  26.3275000000	  44.6660000000	   7.4171000000
S	  27.5357000000	  42.9210000000	   7.9970200000
S	  26.0717000000	  45.2027000000	   3.9561700000
S	  24.8657000000	  46.5315000000	   2.9226400000
S	  35.1888000000	  46.0781000000	  -3.7565636243
S	  33.1205000000	  45.7881000000	  -3.3791636243
S	  32.2658000000	  47.4563000000	  -2.5309636243
S	  29.6334000000	  48.7413000000	   0.8868720000
S	  28.9991000000	  49.4462000000	   2.7665400000
S	  28.4949000000	  48.0809000000	   4.2622400000
S	  31.4220000000	  49.5493000000	   0.1770363757
S	  32.6568000000	  47.8870000000	  -0.4855636243
