31

Li	  13.0419000000	  49.1572000000	  23.3703000000
O	  14.5321000000	  52.8845000000	  23.0372000000
O	  13.4480000000	  50.9212000000	  23.3299000000
C	  13.2736000000	  53.0932000000	  23.7002000000
C	  12.4302000000	  51.8617000000	  23.3742000000
C	  14.4222000000	  51.5366000000	  22.6096000000
H	  13.5306000000	  53.0804000000	  24.8105000000
H	  12.8339000000	  54.0627000000	  23.4471000000
H	  11.7111000000	  51.5828000000	  24.1685000000
H	  11.9270000000	  51.9625000000	  22.4137000000
H	  14.1763000000	  51.4620000000	  21.5565000000
H	  15.3404000000	  51.0368000000	  22.7048000000
O	  13.8595000000	  47.5764000000	  24.1560000000
O	  16.0445000000	  47.7746000000	  24.1839000000
C	  14.1357000000	  47.5907000000	  25.5789000000
C	  15.6624000000	  47.9261000000	  25.5160000000
C	  15.0018000000	  47.0731000000	  23.5625000000
H	  13.6014000000	  48.3494000000	  26.0361000000
H	  13.9321000000	  46.6768000000	  26.0760000000
H	  15.9311000000	  48.9927000000	  25.8174000000
H	  16.2162000000	  47.2398000000	  26.1616000000
H	  15.0568000000	  45.9884000000	  23.7728000000
H	  14.9207000000	  47.2559000000	  22.4830000000
S	  13.8507000000	  48.2163000000	  31.6844000000
S	  12.0688000000	  47.5614000000	  30.8352000000
S	  12.0962000000	  45.5433000000	  30.2184000000
S	  10.2327000000	  47.2596000000	  25.6990000000
S	  10.8407000000	  47.1238000000	  23.6303000000
S	  10.8301000000	  49.0580000000	  22.8620000000
S	  10.6320000000	  45.5662000000	  26.8744000000
S	  12.3800000000	  45.5746000000	  28.1018000000
