72

Li	  26.1008000000	  53.8283000000	   2.4149500000
O	  29.9803000000	  54.7426000000	   1.2433200000
O	  27.9374000000	  54.1431000000	   1.5765000000
C	  29.1870000000	  55.5196000000	   0.3826363757
C	  27.7858000000	  55.3783000000	   0.8645810000
C	  29.2201000000	  54.0753000000	   2.1039000000
H	  29.5402000000	  56.5673000000	   0.5140363757
H	  29.3204000000	  55.2677000000	  -0.7057636243
H	  27.4984000000	  56.1015000000	   1.6332700000
H	  26.9693000000	  55.3353000000	   0.1301363757
H	  29.5650000000	  53.0608000000	   2.2291700000
H	  29.3031000000	  54.6516000000	   3.0299800000
N	  22.6080000000	  54.7422000000	   0.4233363757
S	  21.2942000000	  54.4924000000	   1.2806000000
O	  21.2919000000	  53.1991000000	   1.8776100000
O	  20.9444000000	  55.5888000000	   2.1489300000
C	  20.0501000000	  54.4579000000	  -0.0044636243
F	  19.9789000000	  55.5776000000	  -0.6459636243
F	  18.8321000000	  54.2717000000	   0.4685363757
F	  20.3050000000	  53.4364000000	  -0.9318636243
S	  23.7285000000	  55.7152000000	   0.8304363757
O	  24.9112000000	  55.0043000000	   1.2450300000
O	  23.3543000000	  56.9204000000	   1.5880900000
C	  24.3128000000	  56.3734000000	  -0.7864636243
F	  25.0876000000	  57.3733000000	  -0.4780636243
F	  25.0898000000	  55.4690000000	  -1.4078636243
F	  23.3415000000	  56.7501000000	  -1.6454636243
N	  25.1988000000	  50.3753000000	  -0.6463636243
S	  26.2394000000	  50.7300000000	   0.4356363757
O	  26.0613000000	  52.0297000000	   1.0309600000
O	  26.5465000000	  49.5984000000	   1.2320000000
C	  27.6880000000	  50.9849000000	  -0.6039636243
F	  27.9325000000	  52.2436000000	  -0.7686636243
F	  27.8348000000	  50.3236000000	  -1.7116636243
F	  28.6759000000	  50.5365000000	   0.0386363757
S	  23.7012000000	  50.8356000000	  -0.7787636243
O	  23.1722000000	  51.4499000000	   0.4353363757
O	  22.7762000000	  49.9433000000	  -1.4506636243
C	  23.9230000000	  52.1338000000	  -2.0299636243
F	  22.8234000000	  52.8131000000	  -2.2733636243
F	  24.8013000000	  52.9753000000	  -1.5910636243
F	  24.3769000000	  51.6219000000	  -3.1693636243
N	  25.1323000000	  51.2558000000	   5.0190600000
S	  24.0789000000	  52.0785000000	   4.1903100000
O	  24.4785000000	  53.3337000000	   3.6173800000
O	  23.1167000000	  51.2683000000	   3.4873400000
C	  23.0873000000	  52.6458000000	   5.6584400000
F	  22.3683000000	  51.7116000000	   6.1879000000
F	  22.2075000000	  53.5295000000	   5.2661500000
F	  23.8585000000	  53.1591000000	   6.5886100000
S	  26.6981000000	  51.3957000000	   4.8711900000
O	  27.1941000000	  52.1155000000	   3.7311800000
O	  27.3157000000	  50.0962000000	   5.1936100000
C	  27.1575000000	  52.3308000000	   6.3906400000
F	  26.8181000000	  51.7232000000	   7.5436200000
F	  28.4762000000	  52.5228000000	   6.5629000000
F	  26.5521000000	  53.5272000000	   6.4156500000
N	  24.5267000000	  56.0453000000	   5.2600800000
S	  25.8387000000	  56.1969000000	   4.3786000000
O	  26.5027000000	  55.0004000000	   3.9232300000
O	  25.7011000000	  57.3232000000	   3.4718800000
C	  27.0203000000	  56.8060000000	   5.6320700000
F	  28.2788000000	  56.6124000000	   5.3486300000
F	  26.8845000000	  56.2469000000	   6.8851500000
F	  26.9606000000	  58.1039000000	   5.7159500000
S	  23.2449000000	  56.9405000000	   5.3827700000
O	  22.0497000000	  56.2756000000	   4.8911600000
O	  23.4846000000	  58.3190000000	   4.9568600000
C	  23.0457000000	  57.0656000000	   7.2777700000
F	  24.0016000000	  57.7593000000	   7.7408000000
F	  21.8777000000	  57.6333000000	   7.6055800000
F	  23.0318000000	  55.8336000000	   7.8709700000
