28

Li	  48.1664000000	  39.1275000000	  44.4317000000
O	  46.3928000000	  38.7380000000	  44.3229000000
O	  44.6754000000	  39.1134000000	  45.5316000000
C	  45.6604000000	  39.6214000000	  43.4892000000
C	  44.4981000000	  39.9415000000	  44.3470000000
C	  45.4931000000	  38.1381000000	  45.1438000000
H	  46.2188000000	  40.5990000000	  43.2815000000
H	  45.3543000000	  39.1754000000	  42.4947000000
H	  44.2550000000	  40.9806000000	  44.5905000000
H	  43.6354000000	  39.6068000000	  43.8051000000
H	  45.0114000000	  37.3476000000	  44.6041000000
H	  45.9940000000	  37.6442000000	  45.9499000000
S	  44.4442000000	  45.7990000000	  49.2413000000
S	  46.1221000000	  45.9301000000	  47.9958000000
S	  45.8552000000	  45.7417000000	  45.9178000000
S	  48.8802000000	  42.2925000000	  46.7535000000
S	  50.0128000000	  40.4256000000	  46.3248000000
S	  48.8894000000	  38.6656000000	  46.3513000000
S	  47.7483000000	  42.8936000000	  45.1688000000
S	  47.6883000000	  45.0968000000	  45.0438000000
S	  48.9808000000	  40.3487000000	  42.8621000000
S	  48.9036000000	  38.5970000000	  41.6696000000
S	  49.6230000000	  36.9081000000	  42.7561000000
S	  45.7098000000	  33.3910000000	  43.0115000000
S	  45.3877000000	  32.3316000000	  44.7604000000
S	  44.5257000000	  30.5667000000	  44.2503000000
S	  47.7424000000	  33.9260000000	  42.7360000000
S	  48.2072000000	  35.7568000000	  43.7492000000
