42

Li	  34.3061000000	  31.0726000000	  54.3192000000
O	  34.9157000000	  32.7040000000	  54.0484000000
O	  34.8484000000	  34.7311000000	  53.0028000000
C	  36.2189000000	  32.8819000000	  53.6465000000
C	  36.0801000000	  34.0856000000	  52.6848000000
C	  34.3516000000	  34.0249000000	  54.0192000000
H	  36.8109000000	  33.1194000000	  54.5021000000
H	  36.5257000000	  32.0744000000	  52.9958000000
H	  36.8923000000	  34.8294000000	  52.7734000000
H	  36.0989000000	  33.8919000000	  51.5748000000
H	  33.3157000000	  33.9597000000	  53.9972000000
H	  34.6846000000	  34.4644000000	  54.9543000000
O	  33.1470000000	  30.8481000000	  50.5753000000
O	  33.2548000000	  30.6616000000	  52.9033000000
C	  31.8514000000	  30.8184000000	  51.1469000000
C	  32.0298000000	  31.2676000000	  52.6121000000
C	  33.9945000000	  30.7581000000	  51.6752000000
H	  31.3249000000	  31.5937000000	  50.5830000000
H	  31.4187000000	  29.8252000000	  51.0789000000
H	  32.0834000000	  32.3186000000	  52.6864000000
H	  31.3163000000	  30.9165000000	  53.3351000000
H	  34.6982000000	  29.9347000000	  51.5428000000
H	  34.5059000000	  31.7242000000	  51.5914000000
O	  32.7945000000	  31.1949000000	  55.5642000000
O	  31.5746000000	  30.4856000000	  57.2740000000
C	  32.1945000000	  32.3294000000	  56.1929000000
C	  31.8249000000	  31.8750000000	  57.5901000000
C	  31.8124000000	  30.2477000000	  55.9627000000
H	  32.8985000000	  33.1040000000	  56.1842000000
H	  31.2986000000	  32.5968000000	  55.6067000000
H	  32.7453000000	  32.0141000000	  58.1565000000
H	  30.9057000000	  32.4400000000	  57.9335000000
H	  30.8480000000	  30.3178000000	  55.4545000000
H	  32.3227000000	  29.3132000000	  55.8666000000
S	  35.8901000000	  29.6248000000	  54.7582000000
S	  35.7019000000	  30.0578000000	  56.8293000000
S	  35.7488000000	  32.1448000000	  57.2685000000
S	  34.0091000000	  34.3969000000	  60.3742836243
S	  34.6027000000	  35.8907000000	  61.8138136243
S	  32.9829000000	  36.8229000000	  62.7659136243
S	  34.8947000000	  32.5413000000	  60.6188136243
S	  36.5171000000	  32.3851000000	  59.2758416243
