50

Li	  43.4638000000	  29.4144000000	  44.0053000000
O	  44.2387000000	  31.0275000000	  45.2635000000
O	  44.8153000000	  30.9064000000	  47.3875000000
C	  45.2965000000	  31.8579000000	  45.2664000000
C	  45.7883000000	  31.7105000000	  46.7273000000
C	  43.7114000000	  31.0053000000	  46.5250000000
H	  45.9816000000	  31.4488000000	  44.5309000000
H	  44.9293000000	  32.8521000000	  44.9902000000
H	  46.7184000000	  31.2195000000	  46.7969000000
H	  45.9995000000	  32.6782000000	  47.1532000000
H	  43.0633000000	  31.8495000000	  46.7868000000
H	  43.0978000000	  30.0841000000	  46.6664000000
N	  45.0850000000	  28.2017000000	  40.5726000000
S	  46.0022000000	  29.0384000000	  41.4977000000
O	  45.3975000000	  29.4711000000	  42.7238000000
O	  47.3524000000	  28.5997000000	  41.5214000000
C	  46.2134000000	  30.5561000000	  40.5401000000
F	  47.1254000000	  31.3454000000	  41.0978000000
F	  45.0284000000	  31.1481000000	  40.4844000000
F	  46.5826000000	  30.3362000000	  39.3017000000
S	  43.6413000000	  27.6111000000	  40.8971000000
O	  42.6850000000	  27.5813000000	  39.7917000000
O	  43.1824000000	  27.8194000000	  42.2396000000
C	  44.1526000000	  25.8300000000	  40.9474000000
F	  43.1205000000	  24.9894000000	  41.0255000000
F	  44.7829000000	  25.5470000000	  39.8565000000
F	  44.8100000000	  25.5391000000	  42.0204000000
N	  45.1724000000	  27.3922000000	  47.4837000000
S	  44.8148000000	  26.8786000000	  46.0623000000
O	  44.7849000000	  25.4393000000	  45.9292000000
O	  43.9811000000	  27.7427000000	  45.3045000000
C	  46.3539000000	  27.3030000000	  45.1363000000
F	  46.2555000000	  27.0292000000	  43.8495000000
F	  47.3297000000	  26.4867000000	  45.5017000000
F	  46.7634000000	  28.5780000000	  45.3308000000
S	  44.1780000000	  27.9173000000	  48.5958000000
O	  42.8058000000	  27.9451000000	  48.0331000000
O	  44.6009000000	  29.0381000000	  49.3596000000
C	  44.2277000000	  26.5739000000	  49.8199000000
F	  43.7255000000	  25.4492000000	  49.4059000000
F	  45.4628000000	  26.2960000000	  50.1274000000
F	  43.5281000000	  26.8043000000	  50.9375000000
S	  44.1254000000	  39.9486000000	  38.2540000000
S	  43.4458000000	  37.9814000000	  38.7078000000
S	  43.3811000000	  37.3207000000	  40.7145000000
S	  42.8346000000	  33.1811000000	  42.4761000000
S	  42.6584000000	  31.0927000000	  42.4219000000
S	  41.3540000000	  30.3159000000	  43.9637000000
S	  41.9289000000	  34.1151000000	  40.8070000000
S	  41.6151000000	  36.1739000000	  40.9657000000
