28

Li	  50.8621000000	  52.2778000000	  51.1647000000
O	  50.5230000000	  52.9229000000	  52.9571000000
O	  50.9259000000	  51.8063000000	  54.8348000000
C	  49.4076000000	  53.0228000000	  53.7566000000
C	  49.8039000000	  52.5861000000	  55.1474000000
C	  51.5655000000	  52.5865000000	  53.8666000000
H	  49.2377000000	  54.0815000000	  53.8485000000
H	  48.6321000000	  52.4230000000	  53.2062000000
H	  50.0948000000	  53.5770000000	  55.7809000000
H	  49.0888000000	  52.0137000000	  55.7047000000
H	  52.3660000000	  52.1089000000	  53.4142000000
H	  52.0043000000	  53.5322000000	  54.3674000000
S	  49.7055000000	  50.4222000000	  51.1006000000
S	  48.2677000000	  51.6235000000	  50.0712000000
S	  48.6404000000	  53.6440000000	  50.2491000000
S	  43.9378000000	  54.7185000000	  51.5471000000
S	  43.4791000000	  53.5948000000	  53.2291000000
S	  41.8833000000	  54.4174000000	  54.4092000000
S	  46.0431000000	  55.3344000000	  51.5830000000
S	  46.9522000000	  54.7460000000	  49.8521000000
S	  52.7786000000	  52.8099000000	  50.6952000000
S	  51.8593000000	  52.3709000000	  48.8542000000
S	  53.2418000000	  51.6473000000	  47.4645000000
S	  53.5347000000	  56.2791000000	  46.0040000000
S	  54.5310000000	  57.7301000000	  47.1706000000
S	  53.6776000000	  57.8674000000	  49.0808000000
S	  54.6156000000	  54.5180000000	  45.8874000000
S	  53.2526000000	  52.9155000000	  45.7763000000
