76

Li	  25.1794000000	  38.5440000000	  28.5814000000
N	  25.7002000000	  42.8319000000	  30.2473000000
S	  24.7003000000	  41.6976000000	  30.5837000000
O	  23.3053000000	  42.0176000000	  30.7714000000
O	  24.9502000000	  40.5314000000	  29.7583000000
C	  25.1408000000	  41.2153000000	  32.2991000000
F	  26.3515000000	  40.7620000000	  32.3536000000
F	  24.3711000000	  40.2490000000	  32.8494000000
F	  25.0035000000	  42.2162000000	  33.1452000000
S	  25.3782000000	  44.2379000000	  29.5997000000
O	  25.3259000000	  45.2491000000	  30.5931000000
O	  24.3243000000	  44.2703000000	  28.5909000000
C	  26.9395000000	  44.5865000000	  28.6689000000
F	  27.9441000000	  44.8114000000	  29.5153000000
F	  27.2882000000	  43.6913000000	  27.8396000000
F	  26.7629000000	  45.6538000000	  27.9145000000
N	  28.8574000000	  37.5463000000	  29.1980000000
S	  27.8713000000	  37.0103000000	  30.2426000000
O	  26.6224000000	  37.7521000000	  30.4061000000
O	  27.7371000000	  35.5516000000	  30.2546000000
C	  28.7723000000	  37.3919000000	  31.7893000000
F	  29.4898000000	  38.4990000000	  31.6999000000
F	  29.7099000000	  36.4705000000	  31.9977000000
F	  27.9633000000	  37.4489000000	  32.8799000000
S	  28.4925000000	  38.5169000000	  28.0382000000
O	  27.1058000000	  38.7582000000	  27.7381000000
O	  29.4479000000	  38.4964000000	  26.9232000000
C	  28.9297000000	  40.0454000000	  28.9095000000
F	  28.0670000000	  40.3544000000	  29.8101000000
F	  30.1409000000	  39.9636000000	  29.5732000000
F	  29.0867000000	  41.1129000000	  28.1439000000
N	  26.4451000000	  35.1115000000	  26.2944000000
S	  27.9035000000	  34.6160000000	  26.2701000000
O	  28.7884000000	  35.5934000000	  25.6865000000
O	  28.3140000000	  33.9409000000	  27.5067000000
C	  27.9459000000	  33.4002000000	  24.9494000000
F	  29.1849000000	  33.0271000000	  24.7023000000
F	  27.3595000000	  33.8500000000	  23.8481000000
F	  27.2327000000	  32.2943000000	  25.2785000000
S	  25.4977000000	  35.3507000000	  27.4452000000
O	  25.1878000000	  36.6728000000	  27.8559000000
O	  25.7292000000	  34.4002000000	  28.5118000000
C	  23.9319000000	  34.7489000000	  26.7790000000
F	  24.0771000000	  33.6732000000	  26.0485000000
F	  23.0355000000	  34.4431000000	  27.7124000000
F	  23.4047000000	  35.6700000000	  25.9615000000
N	  21.6353000000	  38.1020000000	  31.4874000000
S	  22.1791000000	  38.4625000000	  30.0284000000
O	  21.8897000000	  39.7771000000	  29.6229000000
O	  23.4792000000	  37.9190000000	  29.7070000000
C	  21.1420000000	  37.3444000000	  28.9896000000
F	  19.8530000000	  37.5185000000	  29.3340000000
F	  21.3129000000	  36.0922000000	  29.1910000000
F	  21.2778000000	  37.4385000000	  27.6697000000
S	  20.8271000000	  38.9695000000	  32.4597000000
O	  19.4437000000	  38.7887000000	  32.2905000000
O	  21.4581000000	  40.2717000000	  32.6843000000
C	  21.1699000000	  38.1410000000	  34.0781000000
F	  22.4158000000	  38.2420000000	  34.4461000000
F	  20.4935000000	  38.7344000000	  35.0691000000
F	  20.8390000000	  36.8472000000	  33.9559000000
N	  22.6549000000	  40.5538000000	  25.4055000000
S	  21.0956000000	  40.4248000000	  25.4850000000
O	  20.5619000000	  39.4278000000	  24.5445000000
O	  20.5408000000	  40.4723000000	  26.7879000000
C	  20.6214000000	  41.9529000000	  24.7023000000
F	  21.1090000000	  43.0203000000	  25.3411000000
F	  19.3136000000	  42.1423000000	  24.5739000000
F	  21.1885000000	  41.9332000000	  23.5292000000
S	  23.5694000000	  40.7036000000	  26.7026000000
O	  24.0983000000	  39.4226000000	  27.1691000000
O	  23.0818000000	  41.6483000000	  27.7002000000
C	  25.0388000000	  41.5431000000	  26.0338000000
F	  24.7220000000	  42.8221000000	  25.8810000000
F	  26.1028000000	  41.5186000000	  26.8756000000
F	  25.4752000000	  41.1238000000	  24.8344000000
