57

Li	  30.3530000000	  48.8233000000	  18.8975000000
O	  28.5854000000	  48.9016000000	  22.8572000000
O	  30.2000000000	  48.4779000000	  21.2695000000
C	  29.1099000000	  47.6051000000	  23.1973000000
C	  30.1012000000	  47.3417000000	  22.0674000000
C	  29.7449000000	  49.4215000000	  22.1737000000
H	  29.6653000000	  47.6411000000	  24.1766000000
H	  28.2186000000	  46.9513000000	  23.3142000000
H	  31.0966000000	  47.1723000000	  22.4595000000
H	  29.8277000000	  46.6797000000	  21.2666000000
H	  29.5270000000	  50.1895000000	  21.4157000000
H	  30.4972000000	  49.7568000000	  22.8757000000
N	  32.7652000000	  52.7981000000	  19.7556000000
S	  31.5638000000	  53.2947000000	  20.6410000000
O	  31.3527000000	  54.6741000000	  20.4176000000
O	  30.3163000000	  52.5006000000	  20.6766000000
C	  32.1602000000	  53.1512000000	  22.3396000000
F	  33.4627000000	  53.1685000000	  22.3624000000
F	  31.6999000000	  52.0493000000	  22.9048000000
F	  31.6516000000	  54.0888000000	  23.0915000000
S	  32.7458000000	  51.6834000000	  18.6874000000
O	  32.4450000000	  52.2085000000	  17.3620000000
O	  32.2125000000	  50.4189000000	  19.2050000000
C	  34.5546000000	  51.3506000000	  18.5603000000
F	  34.9853000000	  50.7199000000	  19.6210000000
F	  34.7647000000	  50.5761000000	  17.5292000000
F	  35.3422000000	  52.4262000000	  18.3915000000
N	  27.2907000000	  51.9094000000	  20.1311000000
S	  27.4270000000	  50.5105000000	  19.5609000000
O	  28.7365000000	  50.1899000000	  18.9788000000
O	  26.7858000000	  49.5458000000	  20.4349000000
C	  26.2514000000	  50.5697000000	  18.1316000000
F	  26.4068000000	  49.4650000000	  17.3861000000
F	  26.4405000000	  51.5680000000	  17.3153000000
F	  24.9851000000	  50.5420000000	  18.5211000000
S	  27.0338000000	  52.3815000000	  21.5617000000
O	  27.9645000000	  53.3869000000	  22.0644000000
O	  26.6200000000	  51.3322000000	  22.4608000000
C	  25.4165000000	  53.3445000000	  21.3013000000
F	  24.5839000000	  52.6555000000	  20.5307000000
F	  24.8109000000	  53.6908000000	  22.3862000000
F	  25.7524000000	  54.3900000000	  20.6160000000
N	  30.8439000000	  45.6186000000	  17.9960000000
S	  32.0369000000	  46.4903000000	  18.5667000000
O	  31.8559000000	  47.8880000000	  18.4712000000
O	  32.4950000000	  45.9385000000	  19.7958000000
C	  33.3094000000	  46.1345000000	  17.3689000000
F	  33.3451000000	  44.8488000000	  17.0164000000
F	  34.4994000000	  46.5313000000	  17.7300000000
F	  33.0135000000	  46.7088000000	  16.2402000000
S	  29.3522000000	  46.0333000000	  18.1231000000
O	  29.2467000000	  47.4640000000	  18.2472000000
O	  28.4920000000	  45.1513000000	  18.9055000000
C	  28.6733000000	  45.8273000000	  16.3906000000
F	  28.8108000000	  44.5789000000	  15.8935000000
F	  27.3513000000	  46.0182000000	  16.4017000000
F	  29.2911000000	  46.5872000000	  15.5363000000
