39

Li	  34.3545000000	  31.9197000000	   1.9614400000
O	  35.2664000000	  33.5852000000	   2.8345500000
O	  34.6540000000	  35.7475000000	   2.5834000000
C	  36.3250000000	  34.3068000000	   3.2779400000
C	  36.0532000000	  35.6951000000	   2.7269800000
C	  34.2153000000	  34.5070000000	   2.9920700000
H	  36.3838000000	  34.2572000000	   4.3806000000
H	  37.2702000000	  33.8291000000	   2.9537900000
H	  36.3852000000	  36.5277000000	   3.3479000000
H	  36.4411000000	  35.9982000000	   1.8134300000
H	  33.4048000000	  34.3144000000	   2.3512300000
H	  33.8925000000	  34.5746000000	   4.0338600000
O	  33.4448000000	  32.7909000000	   0.5434363757
O	  33.1453000000	  32.1549000000	  -1.5618636243
C	  34.5084000000	  33.4066000000	  -0.1516636243
C	  34.1491000000	  33.1468000000	  -1.6470636243
C	  32.4635000000	  32.4829000000	  -0.4411636243
H	  34.6175000000	  34.4353000000	   0.0643363757
H	  35.4627000000	  32.9552000000	   0.1620363757
H	  33.7156000000	  34.0870000000	  -2.0088636243
H	  34.9523000000	  32.8113000000	  -2.3091636243
H	  31.8093000000	  31.7998000000	  -0.0174636243
H	  31.8151000000	  33.3862000000	  -0.6784636243
S	  43.0515000000	  32.5070000000	  -3.4772636243
S	  43.9501000000	  32.1866000000	  -1.6054636243
S	  43.5757000000	  30.2317000000	  -0.9007636243
S	  38.7360000000	  31.0309000000	  -0.3907636243
S	  36.7473000000	  30.3137000000	  -0.0867636243
S	  36.1148000000	  30.7121000000	   1.8173200000
S	  40.1734000000	  29.4482000000	  -0.4187636243
S	  41.9927000000	  30.0370000000	   0.5072363757
S	  33.0041000000	  28.3219000000	   9.3924800000
S	  30.8703000000	  28.5988000000	   9.0349500000
S	  30.2970000000	  30.6209000000	   9.4315500000
S	  29.7066000000	  30.9011000000	   4.9496400000
S	  30.5621000000	  32.0168000000	   3.3692200000
S	  32.4780000000	  31.2928000000	   3.0149600000
S	  29.4780000000	  32.2388000000	   6.5157100000
S	  28.8053000000	  31.1327000000	   8.1396800000
